xflr5 v6.47

Flying_wing_4
T1-55.0 m/s-VLM2-Inviscid
QInf  =   55.000000 m/s
Alpha =    0.000000
Beta  =    0.000°
Phi   =    0.000°
Ctrl  =    0.000
CL    =    0.153616
Cy    =    0.000000
Cd    =    0.001076     ICd   =    0.001076     PCd   =    0.000000
Cl   =   6.627e-17
Cm   =  -0.0194687
ICn   =   -0.000000     PCn   =   -0.000000 
XCP   =    1.555965     YCP   =   -0.000000     ZCP   =    0.025464  
XNP   =    0.000000
Bending = 5447.301106

Main Wing
  y-span        Chord      Ai         Cl        PCd          ICd        CmGeom    CmAirf@chord/4    XTrtop    XTrBot      XCP       BM
   -5.4906     1.4700    -1.465    0.031974    0.000000    0.000815   -0.023740   -0.013005     0.0000    0.0000    0.6582    0.0000
   -5.4531     1.4700    -1.371    0.054287    0.000000    0.001298   -0.039736   -0.021831     0.0000    0.0000    0.6523    0.0614
   -5.3783     1.4700    -1.245    0.076295    0.000000    0.001658   -0.054063   -0.029950     0.0000    0.0000    0.6426    0.8061
   -5.2668     1.4700    -1.107    0.095777    0.000000    0.001851   -0.064852   -0.036561     0.0000    0.0000    0.6318    4.0806
   -5.1194     1.4700    -0.968    0.112253    0.000000    0.001897   -0.071681   -0.041594     0.0000    0.0000    0.6205   13.4075
   -4.9369     1.4700    -0.837    0.125738    0.000000    0.001837   -0.074654   -0.045207     0.0000    0.0000    0.6095   34.1741
   -4.7208     1.4700    -0.720    0.136523    0.000000    0.001716   -0.074171   -0.047674     0.0000    0.0000    0.5992   73.5766
   -4.4723     1.4700    -0.621    0.145028    0.000000    0.001573   -0.070764   -0.049300     0.0000    0.0000    0.5899   140.3762
   -4.1934     1.4700    -0.540    0.151679    0.000000    0.001431   -0.064955   -0.050357     0.0000    0.0000    0.5820   244.5318
   -3.8858     1.4700    -0.476    0.156833    0.000000    0.001302   -0.057194   -0.051051     0.0000    0.0000    0.5755   396.7614
   -3.5516     1.4700    -0.424    0.160763    0.000000    0.001190   -0.047846   -0.051516     0.0000    0.0000    0.5704   608.0609
   -3.1932     1.4700    -0.383    0.163666    0.000000    0.001094   -0.037218   -0.051837     0.0000    0.0000    0.5667   889.2037
   -2.8130     1.4700    -0.350    0.165674    0.000000    0.001012   -0.025581   -0.052067     0.0000    0.0000    0.5643   1250.2352
   -2.4135     1.4700    -0.323    0.166868    0.000000    0.000942   -0.013196   -0.052238     0.0000    0.0000    0.5631   1699.9808
   -1.9976     1.4700    -0.301    0.167271    0.000000    0.000880   -0.000334   -0.052379     0.0000    0.0000    0.5631   2245.5795
   -1.5680     1.4700    -0.281    0.166845    0.000000    0.000819    0.012690   -0.052520     0.0000    0.0000    0.5648   2892.0536
   -1.1277     1.4700    -0.259    0.165471    0.000000    0.000748    0.025468   -0.052721     0.0000    0.0000    0.5686   3641.9192
   -0.6797     1.4700    -0.222    0.162920    0.000000    0.000632    0.037382   -0.053144     0.0000    0.0000    0.5762   4494.8366
   -0.2271     1.4700    -0.119    0.158985    0.000000    0.000331    0.047369   -0.054321     0.0000    0.0000    0.5917   5447.3011
    0.2271     1.4700    -0.119    0.158985    0.000000    0.000331    0.047369   -0.054321     0.0000    0.0000    0.5917   5447.3011
    0.6797     1.4700    -0.222    0.162920    0.000000    0.000632    0.037382   -0.053144     0.0000    0.0000    0.5762   4494.8366
    1.1277     1.4700    -0.259    0.165471    0.000000    0.000748    0.025468   -0.052721     0.0000    0.0000    0.5686   3641.9192
    1.5680     1.4700    -0.281    0.166845    0.000000    0.000819    0.012690   -0.052520     0.0000    0.0000    0.5648   2892.0536
    1.9976     1.4700    -0.301    0.167271    0.000000    0.000880   -0.000334   -0.052379     0.0000    0.0000    0.5631   2245.5795
    2.4135     1.4700    -0.323    0.166868    0.000000    0.000942   -0.013196   -0.052238     0.0000    0.0000    0.5631   1699.9808
    2.8130     1.4700    -0.350    0.165674    0.000000    0.001012   -0.025581   -0.052067     0.0000    0.0000    0.5643   1250.2352
    3.1932     1.4700    -0.383    0.163666    0.000000    0.001094   -0.037218   -0.051837     0.0000    0.0000    0.5667   889.2037
    3.5516     1.4700    -0.424    0.160763    0.000000    0.001190   -0.047846   -0.051516     0.0000    0.0000    0.5704   608.0609
    3.8858     1.4700    -0.476    0.156833    0.000000    0.001302   -0.057194   -0.051051     0.0000    0.0000    0.5755   396.7614
    4.1934     1.4700    -0.540    0.151679    0.000000    0.001431   -0.064955   -0.050357     0.0000    0.0000    0.5820   244.5318
    4.4723     1.4700    -0.621    0.145028    0.000000    0.001573   -0.070764   -0.049300     0.0000    0.0000    0.5899   140.3762
    4.7208     1.4700    -0.720    0.136523    0.000000    0.001716   -0.074171   -0.047674     0.0000    0.0000    0.5992   73.5766
    4.9369     1.4700    -0.837    0.125738    0.000000    0.001837   -0.074654   -0.045207     0.0000    0.0000    0.6095   34.1741
    5.1194     1.4700    -0.968    0.112253    0.000000    0.001897   -0.071681   -0.041594     0.0000    0.0000    0.6205   13.4075
    5.2668     1.4700    -1.107    0.095777    0.000000    0.001851   -0.064852   -0.036561     0.0000    0.0000    0.6318    4.0806
    5.3783     1.4700    -1.245    0.076295    0.000000    0.001658   -0.054063   -0.029950     0.0000    0.0000    0.6426    0.8061
    5.4531     1.4700    -1.371    0.054287    0.000000    0.001298   -0.039736   -0.021831     0.0000    0.0000    0.6523    0.0614
    5.4906     1.4700    -1.465    0.031974    0.000000    0.000815   -0.023740   -0.013005     0.0000    0.0000    0.6582    0.0000


Main Wing Cp Coefficients
 Panel     CtrlPt.x        CtrlPt.y        CtrlPt.z       Nx      Ny       Nz        Area       Cp
Main WingCp Coefficients
Strip 1
   0       2.962e+00      -5.491e+00       3.508e-04           0.066           0.018           0.998       4.021e-04          0.0196
   1       2.930e+00      -5.491e+00       2.388e-03           0.063           0.017           0.998       1.183e-03          0.0275
   2       2.858e+00      -5.491e+00       6.763e-03           0.056           0.015           0.998       1.894e-03          0.0347
   3       2.749e+00      -5.491e+00       1.261e-02           0.048           0.013           0.999       2.494e-03          0.0401
   4       2.611e+00      -5.491e+00       1.878e-02           0.037           0.010           0.999       2.949e-03          0.0445
   5       2.450e+00      -5.491e+00       2.415e-02           0.024           0.007           1.000       3.233e-03          0.0479
   6       2.277e+00      -5.491e+00       2.778e-02           0.011           0.003           1.000       3.329e-03          0.0546
   7       2.101e+00      -5.491e+00       2.901e-02          -0.006          -0.002           1.000       3.232e-03          0.0667
   8       1.933e+00      -5.491e+00       2.700e-02          -0.033          -0.009           0.999       2.949e-03          0.0610
   9       1.782e+00      -5.491e+00       2.127e-02          -0.057          -0.016           0.998       2.496e-03          0.0423
  10       1.657e+00      -5.491e+00       1.363e-02          -0.077          -0.021           0.997       1.897e-03          0.0048
  11       1.566e+00      -5.491e+00       6.383e-03          -0.091          -0.025           0.996       1.186e-03         -0.0883
  12       1.513e+00      -5.491e+00       1.571e-03          -0.098          -0.027           0.995       4.033e-04         -0.4889
Strip 2
  13       2.952e+00      -5.453e+00       3.508e-04           0.066           0.018           0.998       1.204e-03          0.0289
  14       2.920e+00      -5.453e+00       2.388e-03           0.063           0.017           0.998       3.540e-03          0.0450
  15       2.848e+00      -5.453e+00       6.763e-03           0.056           0.015           0.998       5.669e-03          0.0584
  16       2.739e+00      -5.453e+00       1.261e-02           0.048           0.013           0.999       7.466e-03          0.0681
  17       2.601e+00      -5.453e+00       1.878e-02           0.037           0.010           0.999       8.828e-03          0.0759
  18       2.440e+00      -5.453e+00       2.415e-02           0.024           0.007           1.000       9.676e-03          0.0820
  19       2.267e+00      -5.453e+00       2.778e-02           0.011           0.003           1.000       9.964e-03          0.0933
  20       2.091e+00      -5.453e+00       2.901e-02          -0.006          -0.002           1.000       9.674e-03          0.1127
  21       1.922e+00      -5.453e+00       2.700e-02          -0.033          -0.009           0.999       8.827e-03          0.1022
  22       1.772e+00      -5.453e+00       2.127e-02          -0.057          -0.016           0.998       7.470e-03          0.0684
  23       1.647e+00      -5.453e+00       1.363e-02          -0.077          -0.021           0.997       5.678e-03         -0.0013
  24       1.556e+00      -5.453e+00       6.383e-03          -0.091          -0.025           0.996       3.549e-03         -0.1741
  25       1.503e+00      -5.453e+00       1.571e-03          -0.098          -0.027           0.995       1.207e-03         -0.6717
Strip 3
  26       2.931e+00      -5.378e+00       3.508e-04           0.066           0.018           0.998       1.997e-03          0.0374
  27       2.900e+00      -5.378e+00       2.388e-03           0.063           0.017           0.998       5.874e-03          0.0601
  28       2.827e+00      -5.378e+00       6.763e-03           0.056           0.015           0.998       9.406e-03          0.0802
  29       2.719e+00      -5.378e+00       1.261e-02           0.048           0.013           0.999       1.239e-02          0.0952
  30       2.580e+00      -5.378e+00       1.878e-02           0.037           0.010           0.999       1.465e-02          0.1070
  31       2.419e+00      -5.378e+00       2.415e-02           0.024           0.007           1.000       1.605e-02          0.1163
  32       2.246e+00      -5.378e+00       2.778e-02           0.011           0.003           1.000       1.653e-02          0.1318
  33       2.070e+00      -5.378e+00       2.901e-02          -0.006          -0.002           1.000       1.605e-02          0.1547
  34       1.902e+00      -5.378e+00       2.700e-02          -0.033          -0.009           0.999       1.464e-02          0.1371
  35       1.751e+00      -5.378e+00       2.127e-02          -0.057          -0.016           0.998       1.239e-02          0.0843
  36       1.627e+00      -5.378e+00       1.363e-02          -0.077          -0.021           0.997       9.420e-03         -0.0195
  37       1.535e+00      -5.378e+00       6.383e-03          -0.091          -0.025           0.996       5.887e-03         -0.2253
  38       1.483e+00      -5.378e+00       1.571e-03          -0.098          -0.027           0.995       2.003e-03         -0.7596
Strip 4
  39       2.901e+00      -5.267e+00       3.508e-04           0.066           0.018           0.998       2.777e-03          0.0445
  40       2.869e+00      -5.267e+00       2.388e-03           0.063           0.017           0.998       8.167e-03          0.0727
  41       2.797e+00      -5.267e+00       6.763e-03           0.056           0.015           0.998       1.308e-02          0.0986
  42       2.688e+00      -5.267e+00       1.261e-02           0.048           0.013           0.999       1.722e-02          0.1187
  43       2.550e+00      -5.267e+00       1.878e-02           0.037           0.010           0.999       2.036e-02          0.1346
  44       2.389e+00      -5.267e+00       2.415e-02           0.024           0.007           1.000       2.232e-02          0.1471
  45       2.216e+00      -5.267e+00       2.778e-02           0.011           0.003           1.000       2.298e-02          0.1650
  46       2.040e+00      -5.267e+00       2.901e-02          -0.006          -0.002           1.000       2.232e-02          0.1872
  47       1.872e+00      -5.267e+00       2.700e-02          -0.033          -0.009           0.999       2.036e-02          0.1606
  48       1.721e+00      -5.267e+00       2.127e-02          -0.057          -0.016           0.998       1.723e-02          0.0912
  49       1.596e+00      -5.267e+00       1.363e-02          -0.077          -0.021           0.997       1.310e-02         -0.0299
  50       1.505e+00      -5.267e+00       6.383e-03          -0.091          -0.025           0.996       8.186e-03         -0.2437
  51       1.452e+00      -5.267e+00       1.571e-03          -0.098          -0.027           0.995       2.785e-03         -0.7936
Strip 5
  52       2.861e+00      -5.119e+00       3.508e-04           0.066           0.018           0.998       3.537e-03          0.0503
  53       2.829e+00      -5.119e+00       2.388e-03           0.063           0.017           0.998       1.040e-02          0.0829
  54       2.757e+00      -5.119e+00       6.763e-03           0.056           0.015           0.998       1.666e-02          0.1136
  55       2.648e+00      -5.119e+00       1.261e-02           0.048           0.013           0.999       2.194e-02          0.1381
  56       2.509e+00      -5.119e+00       1.878e-02           0.037           0.010           0.999       2.594e-02          0.1575
  57       2.349e+00      -5.119e+00       2.415e-02           0.024           0.007           1.000       2.844e-02          0.1724
  58       2.175e+00      -5.119e+00       2.778e-02           0.011           0.003           1.000       2.928e-02          0.1908
  59       2.000e+00      -5.119e+00       2.901e-02          -0.006          -0.002           1.000       2.843e-02          0.2099
  60       1.831e+00      -5.119e+00       2.700e-02          -0.033          -0.009           0.999       2.594e-02          0.1756
  61       1.681e+00      -5.119e+00       2.127e-02          -0.057          -0.016           0.998       2.195e-02          0.0968
  62       1.556e+00      -5.119e+00       1.363e-02          -0.077          -0.021           0.997       1.669e-02         -0.0301
  63       1.465e+00      -5.119e+00       6.383e-03          -0.091          -0.025           0.996       1.043e-02         -0.2450
  64       1.412e+00      -5.119e+00       1.571e-03          -0.098          -0.027           0.995       3.547e-03         -0.7951
Strip 6
  65       2.811e+00      -4.937e+00       3.508e-04           0.066           0.018           0.998       4.274e-03          0.0549
  66       2.779e+00      -4.937e+00       2.388e-03           0.063           0.017           0.998       1.257e-02          0.0909
  67       2.707e+00      -4.937e+00       6.763e-03           0.056           0.015           0.998       2.013e-02          0.1254
  68       2.598e+00      -4.937e+00       1.261e-02           0.048           0.013           0.999       2.651e-02          0.1533
  69       2.460e+00      -4.937e+00       1.878e-02           0.037           0.010           0.999       3.135e-02          0.1753
  70       2.299e+00      -4.937e+00       2.415e-02           0.024           0.007           1.000       3.436e-02          0.1915
  71       2.126e+00      -4.937e+00       2.778e-02           0.011           0.003           1.000       3.538e-02          0.2093
  72       1.950e+00      -4.937e+00       2.901e-02          -0.006          -0.002           1.000       3.435e-02          0.2254
  73       1.782e+00      -4.937e+00       2.700e-02          -0.033          -0.009           0.999       3.134e-02          0.1864
  74       1.631e+00      -4.937e+00       2.127e-02          -0.057          -0.016           0.998       2.653e-02          0.1036
  75       1.506e+00      -4.937e+00       1.363e-02          -0.077          -0.021           0.997       2.016e-02         -0.0247
  76       1.415e+00      -4.937e+00       6.383e-03          -0.091          -0.025           0.996       1.260e-02         -0.2378
  77       1.362e+00      -4.937e+00       1.571e-03          -0.098          -0.027           0.995       4.286e-03         -0.7785
Strip 7
  78       2.752e+00      -4.721e+00       3.508e-04           0.066           0.018           0.998       4.981e-03          0.0584
  79       2.720e+00      -4.721e+00       2.388e-03           0.063           0.017           0.998       1.465e-02          0.0971
  80       2.648e+00      -4.721e+00       6.763e-03           0.056           0.015           0.998       2.346e-02          0.1343
  81       2.539e+00      -4.721e+00       1.261e-02           0.048           0.013           0.999       3.090e-02          0.1646
  82       2.401e+00      -4.721e+00       1.878e-02           0.037           0.010           0.999       3.653e-02          0.1884
  83       2.240e+00      -4.721e+00       2.415e-02           0.024           0.007           1.000       4.004e-02          0.2052
  84       2.067e+00      -4.721e+00       2.778e-02           0.011           0.003           1.000       4.123e-02          0.2223
  85       1.891e+00      -4.721e+00       2.901e-02          -0.006          -0.002           1.000       4.003e-02          0.2364
  86       1.723e+00      -4.721e+00       2.700e-02          -0.033          -0.009           0.999       3.653e-02          0.1953
  87       1.572e+00      -4.721e+00       2.127e-02          -0.057          -0.016           0.998       3.092e-02          0.1111
  88       1.447e+00      -4.721e+00       1.363e-02          -0.077          -0.021           0.997       2.350e-02         -0.0169
  89       1.356e+00      -4.721e+00       6.383e-03          -0.091          -0.025           0.996       1.469e-02         -0.2268
  90       1.303e+00      -4.721e+00       1.571e-03          -0.098          -0.027           0.995       4.995e-03         -0.7535
Strip 8
  91       2.684e+00      -4.472e+00       3.508e-04           0.066           0.018           0.998       5.655e-03          0.0609
  92       2.653e+00      -4.472e+00       2.388e-03           0.063           0.017           0.998       1.663e-02          0.1015
  93       2.580e+00      -4.472e+00       6.763e-03           0.056           0.015           0.998       2.663e-02          0.1407
  94       2.472e+00      -4.472e+00       1.261e-02           0.048           0.013           0.999       3.508e-02          0.1727
  95       2.333e+00      -4.472e+00       1.878e-02           0.037           0.010           0.999       4.147e-02          0.1975
  96       2.172e+00      -4.472e+00       2.415e-02           0.024           0.007           1.000       4.546e-02          0.2147
  97       1.999e+00      -4.472e+00       2.778e-02           0.011           0.003           1.000       4.681e-02          0.2314
  98       1.823e+00      -4.472e+00       2.901e-02          -0.006          -0.002           1.000       4.544e-02          0.2447
  99       1.655e+00      -4.472e+00       2.700e-02          -0.033          -0.009           0.999       4.147e-02          0.2027
 100       1.504e+00      -4.472e+00       2.127e-02          -0.057          -0.016           0.998       3.509e-02          0.1183
 101       1.379e+00      -4.472e+00       1.363e-02          -0.077          -0.021           0.997       2.667e-02         -0.0086
 102       1.288e+00      -4.472e+00       6.383e-03          -0.091          -0.025           0.996       1.667e-02         -0.2148
 103       1.236e+00      -4.472e+00       1.571e-03          -0.098          -0.027           0.995       5.671e-03         -0.7261
Strip 9
 104       2.608e+00      -4.193e+00       3.508e-04           0.066           0.018           0.998       6.289e-03          0.0628
 105       2.577e+00      -4.193e+00       2.388e-03           0.063           0.017           0.998       1.850e-02          0.1047
 106       2.504e+00      -4.193e+00       6.763e-03           0.056           0.015           0.998       2.962e-02          0.1452
 107       2.396e+00      -4.193e+00       1.261e-02           0.048           0.013           0.999       3.901e-02          0.1783
 108       2.257e+00      -4.193e+00       1.878e-02           0.037           0.010           0.999       4.613e-02          0.2039
 109       2.096e+00      -4.193e+00       2.415e-02           0.024           0.007           1.000       5.056e-02          0.2214
 110       1.923e+00      -4.193e+00       2.778e-02           0.011           0.003           1.000       5.206e-02          0.2381
 111       1.747e+00      -4.193e+00       2.901e-02          -0.006          -0.002           1.000       5.054e-02          0.2511
 112       1.579e+00      -4.193e+00       2.700e-02          -0.033          -0.009           0.999       4.612e-02          0.2090
 113       1.428e+00      -4.193e+00       2.127e-02          -0.057          -0.016           0.998       3.903e-02          0.1249
 114       1.303e+00      -4.193e+00       1.363e-02          -0.077          -0.021           0.997       2.967e-02         -0.0009
 115       1.212e+00      -4.193e+00       6.383e-03          -0.091          -0.025           0.996       1.854e-02         -0.2034
 116       1.160e+00      -4.193e+00       1.571e-03          -0.098          -0.027           0.995       6.307e-03         -0.6998
Strip 10
 117       2.524e+00      -3.886e+00       3.508e-04           0.066           0.018           0.998       6.881e-03          0.0640
 118       2.493e+00      -3.886e+00       2.388e-03           0.063           0.017           0.998       2.024e-02          0.1068
 119       2.420e+00      -3.886e+00       6.763e-03           0.056           0.015           0.998       3.241e-02          0.1483
 120       2.312e+00      -3.886e+00       1.261e-02           0.048           0.013           0.999       4.268e-02          0.1822
 121       2.173e+00      -3.886e+00       1.878e-02           0.037           0.010           0.999       5.047e-02          0.2084
 122       2.012e+00      -3.886e+00       2.415e-02           0.024           0.007           1.000       5.532e-02          0.2262
 123       1.839e+00      -3.886e+00       2.778e-02           0.011           0.003           1.000       5.696e-02          0.2430
 124       1.663e+00      -3.886e+00       2.901e-02          -0.006          -0.002           1.000       5.530e-02          0.2561
 125       1.495e+00      -3.886e+00       2.700e-02          -0.033          -0.009           0.999       5.046e-02          0.2141
 126       1.344e+00      -3.886e+00       2.127e-02          -0.057          -0.016           0.998       4.271e-02          0.1303
 127       1.219e+00      -3.886e+00       1.363e-02          -0.077          -0.021           0.997       3.246e-02          0.0057
 128       1.128e+00      -3.886e+00       6.383e-03          -0.091          -0.025           0.996       2.029e-02         -0.1934
 129       1.076e+00      -3.886e+00       1.571e-03          -0.098          -0.027           0.995       6.900e-03         -0.6767
Strip 11
 130       2.433e+00      -3.552e+00       3.508e-04           0.066           0.018           0.998       7.426e-03          0.0649
 131       2.402e+00      -3.552e+00       2.388e-03           0.063           0.017           0.998       2.184e-02          0.1084
 132       2.329e+00      -3.552e+00       6.763e-03           0.056           0.015           0.998       3.497e-02          0.1505
 133       2.221e+00      -3.552e+00       1.261e-02           0.048           0.013           0.999       4.606e-02          0.1849
 134       2.082e+00      -3.552e+00       1.878e-02           0.037           0.010           0.999       5.446e-02          0.2116
 135       1.921e+00      -3.552e+00       2.415e-02           0.024           0.007           1.000       5.970e-02          0.2297
 136       1.748e+00      -3.552e+00       2.778e-02           0.011           0.003           1.000       6.147e-02          0.2466
 137       1.572e+00      -3.552e+00       2.901e-02          -0.006          -0.002           1.000       5.968e-02          0.2599
 138       1.404e+00      -3.552e+00       2.700e-02          -0.033          -0.009           0.999       5.445e-02          0.2180
 139       1.253e+00      -3.552e+00       2.127e-02          -0.057          -0.016           0.998       4.609e-02          0.1348
 140       1.128e+00      -3.552e+00       1.363e-02          -0.077          -0.021           0.997       3.503e-02          0.0112
 141       1.037e+00      -3.552e+00       6.383e-03          -0.091          -0.025           0.996       2.189e-02         -0.1852
 142       9.846e-01      -3.552e+00       1.571e-03          -0.098          -0.027           0.995       7.447e-03         -0.6577
Strip 12
 143       2.336e+00      -3.193e+00       3.508e-04           0.066           0.018           0.998       7.920e-03          0.0655
 144       2.304e+00      -3.193e+00       2.388e-03           0.063           0.017           0.998       2.329e-02          0.1094
 145       2.232e+00      -3.193e+00       6.763e-03           0.056           0.015           0.998       3.730e-02          0.1520
 146       2.123e+00      -3.193e+00       1.261e-02           0.048           0.013           0.999       4.913e-02          0.1869
 147       1.984e+00      -3.193e+00       1.878e-02           0.037           0.010           0.999       5.809e-02          0.2138
 148       1.823e+00      -3.193e+00       2.415e-02           0.024           0.007           1.000       6.367e-02          0.2322
 149       1.650e+00      -3.193e+00       2.778e-02           0.011           0.003           1.000       6.556e-02          0.2493
 150       1.474e+00      -3.193e+00       2.901e-02          -0.006          -0.002           1.000       6.365e-02          0.2627
 151       1.306e+00      -3.193e+00       2.700e-02          -0.033          -0.009           0.999       5.808e-02          0.2210
 152       1.155e+00      -3.193e+00       2.127e-02          -0.057          -0.016           0.998       4.915e-02          0.1381
 153       1.031e+00      -3.193e+00       1.363e-02          -0.077          -0.021           0.997       3.736e-02          0.0153
 154       9.394e-01      -3.193e+00       6.383e-03          -0.091          -0.025           0.996       2.335e-02         -0.1789
 155       8.869e-01      -3.193e+00       1.571e-03          -0.098          -0.027           0.995       7.942e-03         -0.6432
Strip 13
 156       2.232e+00      -2.813e+00       3.508e-04           0.066           0.018           0.998       8.360e-03          0.0660
 157       2.200e+00      -2.813e+00       2.388e-03           0.063           0.017           0.998       2.459e-02          0.1102
 158       2.128e+00      -2.813e+00       6.763e-03           0.056           0.015           0.998       3.937e-02          0.1531
 159       2.019e+00      -2.813e+00       1.261e-02           0.048           0.013           0.999       5.185e-02          0.1882
 160       1.880e+00      -2.813e+00       1.878e-02           0.037           0.010           0.999       6.131e-02          0.2154
 161       1.720e+00      -2.813e+00       2.415e-02           0.024           0.007           1.000       6.720e-02          0.2340
 162       1.546e+00      -2.813e+00       2.778e-02           0.011           0.003           1.000       6.920e-02          0.2512
 163       1.371e+00      -2.813e+00       2.901e-02          -0.006          -0.002           1.000       6.718e-02          0.2646
 164       1.202e+00      -2.813e+00       2.700e-02          -0.033          -0.009           0.999       6.130e-02          0.2231
 165       1.051e+00      -2.813e+00       2.127e-02          -0.057          -0.016           0.998       5.188e-02          0.1404
 166       9.269e-01      -2.813e+00       1.363e-02          -0.077          -0.021           0.997       3.943e-02          0.0181
 167       8.357e-01      -2.813e+00       6.383e-03          -0.091          -0.025           0.996       2.465e-02         -0.1747
 168       7.832e-01      -2.813e+00       1.571e-03          -0.098          -0.027           0.995       8.383e-03         -0.6334
Strip 14
 169       2.123e+00      -2.414e+00       3.508e-04           0.066           0.018           0.998       8.742e-03          0.0663
 170       2.091e+00      -2.414e+00       2.388e-03           0.063           0.017           0.998       2.571e-02          0.1107
 171       2.019e+00      -2.414e+00       6.763e-03           0.056           0.015           0.998       4.118e-02          0.1538
 172       1.910e+00      -2.414e+00       1.261e-02           0.048           0.013           0.999       5.423e-02          0.1892
 173       1.772e+00      -2.414e+00       1.878e-02           0.037           0.010           0.999       6.412e-02          0.2165
 174       1.611e+00      -2.414e+00       2.415e-02           0.024           0.007           1.000       7.028e-02          0.2351
 175       1.438e+00      -2.414e+00       2.778e-02           0.011           0.003           1.000       7.237e-02          0.2524
 176       1.262e+00      -2.414e+00       2.901e-02          -0.006          -0.002           1.000       7.026e-02          0.2658
 177       1.093e+00      -2.414e+00       2.700e-02          -0.033          -0.009           0.999       6.411e-02          0.2243
 178       9.425e-01      -2.414e+00       2.127e-02          -0.057          -0.016           0.998       5.426e-02          0.1416
 179       8.179e-01      -2.414e+00       1.363e-02          -0.077          -0.021           0.997       4.124e-02          0.0195
 180       7.267e-01      -2.414e+00       6.383e-03          -0.091          -0.025           0.996       2.577e-02         -0.1726
 181       6.743e-01      -2.414e+00       1.571e-03          -0.098          -0.027           0.995       8.767e-03         -0.6286
Strip 15
 182       2.009e+00      -1.998e+00       3.508e-04           0.066           0.018           0.998       9.065e-03          0.0665
 183       1.978e+00      -1.998e+00       2.388e-03           0.063           0.017           0.998       2.666e-02          0.1110
 184       1.905e+00      -1.998e+00       6.763e-03           0.056           0.015           0.998       4.270e-02          0.1543
 185       1.797e+00      -1.998e+00       1.261e-02           0.048           0.013           0.999       5.623e-02          0.1897
 186       1.658e+00      -1.998e+00       1.878e-02           0.037           0.010           0.999       6.649e-02          0.2171
 187       1.497e+00      -1.998e+00       2.415e-02           0.024           0.007           1.000       7.288e-02          0.2357
 188       1.324e+00      -1.998e+00       2.778e-02           0.011           0.003           1.000       7.504e-02          0.2529
 189       1.148e+00      -1.998e+00       2.901e-02          -0.006          -0.002           1.000       7.286e-02          0.2663
 190       9.799e-01      -1.998e+00       2.700e-02          -0.033          -0.009           0.999       6.648e-02          0.2246
 191       8.291e-01      -1.998e+00       2.127e-02          -0.057          -0.016           0.998       5.626e-02          0.1418
 192       7.045e-01      -1.998e+00       1.363e-02          -0.077          -0.021           0.997       4.276e-02          0.0195
 193       6.133e-01      -1.998e+00       6.383e-03          -0.091          -0.025           0.996       2.673e-02         -0.1728
 194       5.608e-01      -1.998e+00       1.571e-03          -0.098          -0.027           0.995       9.091e-03         -0.6293
Strip 16
 195       1.892e+00      -1.568e+00       3.508e-04           0.066           0.018           0.998       9.327e-03          0.0666
 196       1.861e+00      -1.568e+00       2.388e-03           0.063           0.017           0.998       2.743e-02          0.1113
 197       1.788e+00      -1.568e+00       6.763e-03           0.056           0.015           0.998       4.393e-02          0.1546
 198       1.680e+00      -1.568e+00       1.261e-02           0.048           0.013           0.999       5.785e-02          0.1901
 199       1.541e+00      -1.568e+00       1.878e-02           0.037           0.010           0.999       6.840e-02          0.2174
 200       1.380e+00      -1.568e+00       2.415e-02           0.024           0.007           1.000       7.498e-02          0.2359
 201       1.207e+00      -1.568e+00       2.778e-02           0.011           0.003           1.000       7.720e-02          0.2529
 202       1.031e+00      -1.568e+00       2.901e-02          -0.006          -0.002           1.000       7.496e-02          0.2660
 203       8.628e-01      -1.568e+00       2.700e-02          -0.033          -0.009           0.999       6.839e-02          0.2240
 204       7.120e-01      -1.568e+00       2.127e-02          -0.057          -0.016           0.998       5.788e-02          0.1408
 205       5.873e-01      -1.568e+00       1.363e-02          -0.077          -0.021           0.997       4.399e-02          0.0179
 206       4.961e-01      -1.568e+00       6.383e-03          -0.091          -0.025           0.996       2.750e-02         -0.1758
 207       4.437e-01      -1.568e+00       1.571e-03          -0.098          -0.027           0.995       9.353e-03         -0.6365
Strip 17
 208       1.772e+00      -1.128e+00       3.508e-04           0.066           0.018           0.998       9.524e-03          0.0667
 209       1.740e+00      -1.128e+00       2.388e-03           0.063           0.017           0.998       2.801e-02          0.1115
 210       1.668e+00      -1.128e+00       6.763e-03           0.056           0.015           0.998       4.486e-02          0.1548
 211       1.560e+00      -1.128e+00       1.261e-02           0.048           0.013           0.999       5.908e-02          0.1903
 212       1.421e+00      -1.128e+00       1.878e-02           0.037           0.010           0.999       6.985e-02          0.2175
 213       1.260e+00      -1.128e+00       2.415e-02           0.024           0.007           1.000       7.656e-02          0.2358
 214       1.087e+00      -1.128e+00       2.778e-02           0.011           0.003           1.000       7.884e-02          0.2524
 215       9.110e-01      -1.128e+00       2.901e-02          -0.006          -0.002           1.000       7.654e-02          0.2649
 216       7.427e-01      -1.128e+00       2.700e-02          -0.033          -0.009           0.999       6.984e-02          0.2222
 217       5.919e-01      -1.128e+00       2.127e-02          -0.057          -0.016           0.998       5.911e-02          0.1381
 218       4.672e-01      -1.128e+00       1.363e-02          -0.077          -0.021           0.997       4.492e-02          0.0139
 219       3.760e-01      -1.128e+00       6.383e-03          -0.091          -0.025           0.996       2.808e-02         -0.1824
 220       3.236e-01      -1.128e+00       1.571e-03          -0.098          -0.027           0.995       9.551e-03         -0.6526
Strip 18
 221       1.650e+00      -6.797e-01       3.508e-04           0.066           0.018           0.998       9.656e-03          0.0671
 222       1.618e+00      -6.797e-01       2.388e-03           0.063           0.017           0.998       2.840e-02          0.1121
 223       1.546e+00      -6.797e-01       6.763e-03           0.056           0.015           0.998       4.548e-02          0.1556
 224       1.437e+00      -6.797e-01       1.261e-02           0.048           0.013           0.999       5.990e-02          0.1911
 225       1.299e+00      -6.797e-01       1.878e-02           0.037           0.010           0.999       7.082e-02          0.2180
 226       1.138e+00      -6.797e-01       2.415e-02           0.024           0.007           1.000       7.763e-02          0.2356
 227       9.647e-01      -6.797e-01       2.778e-02           0.011           0.003           1.000       7.993e-02          0.2512
 228       7.888e-01      -6.797e-01       2.901e-02          -0.006          -0.002           1.000       7.761e-02          0.2626
 229       6.205e-01      -6.797e-01       2.700e-02          -0.033          -0.009           0.999       7.081e-02          0.2186
 230       4.697e-01      -6.797e-01       2.127e-02          -0.057          -0.016           0.998       5.993e-02          0.1329
 231       3.451e-01      -6.797e-01       1.363e-02          -0.077          -0.021           0.997       4.555e-02          0.0064
 232       2.539e-01      -6.797e-01       6.383e-03          -0.091          -0.025           0.996       2.847e-02         -0.1946
 233       2.014e-01      -6.797e-01       1.571e-03          -0.098          -0.027           0.995       9.684e-03         -0.6816
Strip 19
 234       1.527e+00      -2.271e-01       3.508e-04           0.066           0.018           0.998       9.723e-03          0.0690
 235       1.495e+00      -2.271e-01       2.388e-03           0.063           0.017           0.998       2.860e-02          0.1153
 236       1.423e+00      -2.271e-01       6.763e-03           0.056           0.015           0.998       4.579e-02          0.1597
 237       1.314e+00      -2.271e-01       1.261e-02           0.048           0.013           0.999       6.031e-02          0.1951
 238       1.175e+00      -2.271e-01       1.878e-02           0.037           0.010           0.999       7.131e-02          0.2209
 239       1.015e+00      -2.271e-01       2.415e-02           0.024           0.007           1.000       7.816e-02          0.2364
 240       8.412e-01      -2.271e-01       2.778e-02           0.011           0.003           1.000       8.048e-02          0.2492
 241       6.653e-01      -2.271e-01       2.901e-02          -0.006          -0.002           1.000       7.814e-02          0.2574
 242       4.971e-01      -2.271e-01       2.700e-02          -0.033          -0.009           0.999       7.130e-02          0.2103
 243       3.462e-01      -2.271e-01       2.127e-02          -0.057          -0.016           0.998       6.034e-02          0.1221
 244       2.216e-01      -2.271e-01       1.363e-02          -0.077          -0.021           0.997       4.586e-02         -0.0072
 245       1.304e-01      -2.271e-01       6.383e-03          -0.091          -0.025           0.996       2.866e-02         -0.2144
 246       7.795e-02      -2.271e-01       1.571e-03          -0.098          -0.027           0.995       9.750e-03         -0.7263
Strip 20
 247       1.527e+00       2.271e-01       3.508e-04           0.066          -0.018           0.998       9.723e-03          0.0690
 248       1.495e+00       2.271e-01       2.388e-03           0.063          -0.017           0.998       2.860e-02          0.1153
 249       1.423e+00       2.271e-01       6.763e-03           0.056          -0.015           0.998       4.579e-02          0.1597
 250       1.314e+00       2.271e-01       1.261e-02           0.048          -0.013           0.999       6.031e-02          0.1951
 251       1.175e+00       2.271e-01       1.878e-02           0.037          -0.010           0.999       7.131e-02          0.2209
 252       1.015e+00       2.271e-01       2.415e-02           0.024          -0.007           1.000       7.816e-02          0.2364
 253       8.412e-01       2.271e-01       2.778e-02           0.011          -0.003           1.000       8.048e-02          0.2492
 254       6.653e-01       2.271e-01       2.901e-02          -0.006           0.002           1.000       7.814e-02          0.2574
 255       4.971e-01       2.271e-01       2.700e-02          -0.033           0.009           0.999       7.130e-02          0.2103
 256       3.462e-01       2.271e-01       2.127e-02          -0.057           0.016           0.998       6.034e-02          0.1221
 257       2.216e-01       2.271e-01       1.363e-02          -0.077           0.021           0.997       4.586e-02         -0.0072
 258       1.304e-01       2.271e-01       6.383e-03          -0.091           0.025           0.996       2.866e-02         -0.2144
 259       7.795e-02       2.271e-01       1.571e-03          -0.098           0.027           0.995       9.750e-03         -0.7263
Strip 21
 260       1.650e+00       6.797e-01       3.508e-04           0.066          -0.018           0.998       9.656e-03          0.0671
 261       1.618e+00       6.797e-01       2.388e-03           0.063          -0.017           0.998       2.840e-02          0.1121
 262       1.546e+00       6.797e-01       6.763e-03           0.056          -0.015           0.998       4.548e-02          0.1556
 263       1.437e+00       6.797e-01       1.261e-02           0.048          -0.013           0.999       5.990e-02          0.1911
 264       1.299e+00       6.797e-01       1.878e-02           0.037          -0.010           0.999       7.082e-02          0.2180
 265       1.138e+00       6.797e-01       2.415e-02           0.024          -0.007           1.000       7.763e-02          0.2356
 266       9.647e-01       6.797e-01       2.778e-02           0.011          -0.003           1.000       7.993e-02          0.2512
 267       7.888e-01       6.797e-01       2.901e-02          -0.006           0.002           1.000       7.761e-02          0.2626
 268       6.205e-01       6.797e-01       2.700e-02          -0.033           0.009           0.999       7.081e-02          0.2186
 269       4.697e-01       6.797e-01       2.127e-02          -0.057           0.016           0.998       5.993e-02          0.1329
 270       3.451e-01       6.797e-01       1.363e-02          -0.077           0.021           0.997       4.555e-02          0.0064
 271       2.539e-01       6.797e-01       6.383e-03          -0.091           0.025           0.996       2.847e-02         -0.1946
 272       2.014e-01       6.797e-01       1.571e-03          -0.098           0.027           0.995       9.684e-03         -0.6816
Strip 22
 273       1.772e+00       1.128e+00       3.508e-04           0.066          -0.018           0.998       9.524e-03          0.0667
 274       1.740e+00       1.128e+00       2.388e-03           0.063          -0.017           0.998       2.801e-02          0.1115
 275       1.668e+00       1.128e+00       6.763e-03           0.056          -0.015           0.998       4.486e-02          0.1548
 276       1.560e+00       1.128e+00       1.261e-02           0.048          -0.013           0.999       5.908e-02          0.1903
 277       1.421e+00       1.128e+00       1.878e-02           0.037          -0.010           0.999       6.985e-02          0.2175
 278       1.260e+00       1.128e+00       2.415e-02           0.024          -0.007           1.000       7.656e-02          0.2358
 279       1.087e+00       1.128e+00       2.778e-02           0.011          -0.003           1.000       7.884e-02          0.2524
 280       9.110e-01       1.128e+00       2.901e-02          -0.006           0.002           1.000       7.654e-02          0.2649
 281       7.427e-01       1.128e+00       2.700e-02          -0.033           0.009           0.999       6.984e-02          0.2222
 282       5.919e-01       1.128e+00       2.127e-02          -0.057           0.016           0.998       5.911e-02          0.1381
 283       4.672e-01       1.128e+00       1.363e-02          -0.077           0.021           0.997       4.492e-02          0.0139
 284       3.760e-01       1.128e+00       6.383e-03          -0.091           0.025           0.996       2.808e-02         -0.1824
 285       3.236e-01       1.128e+00       1.571e-03          -0.098           0.027           0.995       9.551e-03         -0.6526
Strip 23
 286       1.892e+00       1.568e+00       3.508e-04           0.066          -0.018           0.998       9.327e-03          0.0666
 287       1.861e+00       1.568e+00       2.388e-03           0.063          -0.017           0.998       2.743e-02          0.1113
 288       1.788e+00       1.568e+00       6.763e-03           0.056          -0.015           0.998       4.393e-02          0.1546
 289       1.680e+00       1.568e+00       1.261e-02           0.048          -0.013           0.999       5.785e-02          0.1901
 290       1.541e+00       1.568e+00       1.878e-02           0.037          -0.010           0.999       6.840e-02          0.2174
 291       1.380e+00       1.568e+00       2.415e-02           0.024          -0.007           1.000       7.498e-02          0.2359
 292       1.207e+00       1.568e+00       2.778e-02           0.011          -0.003           1.000       7.720e-02          0.2529
 293       1.031e+00       1.568e+00       2.901e-02          -0.006           0.002           1.000       7.496e-02          0.2660
 294       8.628e-01       1.568e+00       2.700e-02          -0.033           0.009           0.999       6.839e-02          0.2240
 295       7.120e-01       1.568e+00       2.127e-02          -0.057           0.016           0.998       5.788e-02          0.1408
 296       5.873e-01       1.568e+00       1.363e-02          -0.077           0.021           0.997       4.399e-02          0.0179
 297       4.961e-01       1.568e+00       6.383e-03          -0.091           0.025           0.996       2.750e-02         -0.1758
 298       4.437e-01       1.568e+00       1.571e-03          -0.098           0.027           0.995       9.353e-03         -0.6365
Strip 24
 299       2.009e+00       1.998e+00       3.508e-04           0.066          -0.018           0.998       9.065e-03          0.0665
 300       1.978e+00       1.998e+00       2.388e-03           0.063          -0.017           0.998       2.666e-02          0.1110
 301       1.905e+00       1.998e+00       6.763e-03           0.056          -0.015           0.998       4.270e-02          0.1543
 302       1.797e+00       1.998e+00       1.261e-02           0.048          -0.013           0.999       5.623e-02          0.1897
 303       1.658e+00       1.998e+00       1.878e-02           0.037          -0.010           0.999       6.649e-02          0.2171
 304       1.497e+00       1.998e+00       2.415e-02           0.024          -0.007           1.000       7.288e-02          0.2357
 305       1.324e+00       1.998e+00       2.778e-02           0.011          -0.003           1.000       7.504e-02          0.2529
 306       1.148e+00       1.998e+00       2.901e-02          -0.006           0.002           1.000       7.286e-02          0.2663
 307       9.799e-01       1.998e+00       2.700e-02          -0.033           0.009           0.999       6.648e-02          0.2246
 308       8.291e-01       1.998e+00       2.127e-02          -0.057           0.016           0.998       5.626e-02          0.1418
 309       7.045e-01       1.998e+00       1.363e-02          -0.077           0.021           0.997       4.276e-02          0.0195
 310       6.133e-01       1.998e+00       6.383e-03          -0.091           0.025           0.996       2.673e-02         -0.1728
 311       5.608e-01       1.998e+00       1.571e-03          -0.098           0.027           0.995       9.091e-03         -0.6293
Strip 25
 312       2.123e+00       2.414e+00       3.508e-04           0.066          -0.018           0.998       8.742e-03          0.0663
 313       2.091e+00       2.414e+00       2.388e-03           0.063          -0.017           0.998       2.571e-02          0.1107
 314       2.019e+00       2.414e+00       6.763e-03           0.056          -0.015           0.998       4.118e-02          0.1538
 315       1.910e+00       2.414e+00       1.261e-02           0.048          -0.013           0.999       5.423e-02          0.1892
 316       1.772e+00       2.414e+00       1.878e-02           0.037          -0.010           0.999       6.412e-02          0.2165
 317       1.611e+00       2.414e+00       2.415e-02           0.024          -0.007           1.000       7.028e-02          0.2351
 318       1.438e+00       2.414e+00       2.778e-02           0.011          -0.003           1.000       7.237e-02          0.2524
 319       1.262e+00       2.414e+00       2.901e-02          -0.006           0.002           1.000       7.026e-02          0.2658
 320       1.093e+00       2.414e+00       2.700e-02          -0.033           0.009           0.999       6.411e-02          0.2243
 321       9.425e-01       2.414e+00       2.127e-02          -0.057           0.016           0.998       5.426e-02          0.1416
 322       8.179e-01       2.414e+00       1.363e-02          -0.077           0.021           0.997       4.124e-02          0.0195
 323       7.267e-01       2.414e+00       6.383e-03          -0.091           0.025           0.996       2.577e-02         -0.1726
 324       6.743e-01       2.414e+00       1.571e-03          -0.098           0.027           0.995       8.767e-03         -0.6286
Strip 26
 325       2.232e+00       2.813e+00       3.508e-04           0.066          -0.018           0.998       8.360e-03          0.0660
 326       2.200e+00       2.813e+00       2.388e-03           0.063          -0.017           0.998       2.459e-02          0.1102
 327       2.128e+00       2.813e+00       6.763e-03           0.056          -0.015           0.998       3.937e-02          0.1531
 328       2.019e+00       2.813e+00       1.261e-02           0.048          -0.013           0.999       5.185e-02          0.1882
 329       1.880e+00       2.813e+00       1.878e-02           0.037          -0.010           0.999       6.131e-02          0.2154
 330       1.720e+00       2.813e+00       2.415e-02           0.024          -0.007           1.000       6.720e-02          0.2340
 331       1.546e+00       2.813e+00       2.778e-02           0.011          -0.003           1.000       6.920e-02          0.2512
 332       1.371e+00       2.813e+00       2.901e-02          -0.006           0.002           1.000       6.718e-02          0.2646
 333       1.202e+00       2.813e+00       2.700e-02          -0.033           0.009           0.999       6.130e-02          0.2231
 334       1.051e+00       2.813e+00       2.127e-02          -0.057           0.016           0.998       5.188e-02          0.1404
 335       9.269e-01       2.813e+00       1.363e-02          -0.077           0.021           0.997       3.943e-02          0.0181
 336       8.357e-01       2.813e+00       6.383e-03          -0.091           0.025           0.996       2.465e-02         -0.1747
 337       7.832e-01       2.813e+00       1.571e-03          -0.098           0.027           0.995       8.383e-03         -0.6334
Strip 27
 338       2.336e+00       3.193e+00       3.508e-04           0.066          -0.018           0.998       7.920e-03          0.0655
 339       2.304e+00       3.193e+00       2.388e-03           0.063          -0.017           0.998       2.329e-02          0.1094
 340       2.232e+00       3.193e+00       6.763e-03           0.056          -0.015           0.998       3.730e-02          0.1520
 341       2.123e+00       3.193e+00       1.261e-02           0.048          -0.013           0.999       4.913e-02          0.1869
 342       1.984e+00       3.193e+00       1.878e-02           0.037          -0.010           0.999       5.809e-02          0.2138
 343       1.823e+00       3.193e+00       2.415e-02           0.024          -0.007           1.000       6.367e-02          0.2322
 344       1.650e+00       3.193e+00       2.778e-02           0.011          -0.003           1.000       6.556e-02          0.2493
 345       1.474e+00       3.193e+00       2.901e-02          -0.006           0.002           1.000       6.365e-02          0.2627
 346       1.306e+00       3.193e+00       2.700e-02          -0.033           0.009           0.999       5.808e-02          0.2210
 347       1.155e+00       3.193e+00       2.127e-02          -0.057           0.016           0.998       4.915e-02          0.1381
 348       1.031e+00       3.193e+00       1.363e-02          -0.077           0.021           0.997       3.736e-02          0.0153
 349       9.394e-01       3.193e+00       6.383e-03          -0.091           0.025           0.996       2.335e-02         -0.1789
 350       8.869e-01       3.193e+00       1.571e-03          -0.098           0.027           0.995       7.942e-03         -0.6432
Strip 28
 351       2.433e+00       3.552e+00       3.508e-04           0.066          -0.018           0.998       7.426e-03          0.0649
 352       2.402e+00       3.552e+00       2.388e-03           0.063          -0.017           0.998       2.184e-02          0.1084
 353       2.329e+00       3.552e+00       6.763e-03           0.056          -0.015           0.998       3.497e-02          0.1505
 354       2.221e+00       3.552e+00       1.261e-02           0.048          -0.013           0.999       4.606e-02          0.1849
 355       2.082e+00       3.552e+00       1.878e-02           0.037          -0.010           0.999       5.446e-02          0.2116
 356       1.921e+00       3.552e+00       2.415e-02           0.024          -0.007           1.000       5.970e-02          0.2297
 357       1.748e+00       3.552e+00       2.778e-02           0.011          -0.003           1.000       6.147e-02          0.2466
 358       1.572e+00       3.552e+00       2.901e-02          -0.006           0.002           1.000       5.968e-02          0.2599
 359       1.404e+00       3.552e+00       2.700e-02          -0.033           0.009           0.999       5.445e-02          0.2180
 360       1.253e+00       3.552e+00       2.127e-02          -0.057           0.016           0.998       4.609e-02          0.1348
 361       1.128e+00       3.552e+00       1.363e-02          -0.077           0.021           0.997       3.503e-02          0.0112
 362       1.037e+00       3.552e+00       6.383e-03          -0.091           0.025           0.996       2.189e-02         -0.1852
 363       9.846e-01       3.552e+00       1.571e-03          -0.098           0.027           0.995       7.447e-03         -0.6577
Strip 29
 364       2.524e+00       3.886e+00       3.508e-04           0.066          -0.018           0.998       6.881e-03          0.0640
 365       2.493e+00       3.886e+00       2.388e-03           0.063          -0.017           0.998       2.024e-02          0.1068
 366       2.420e+00       3.886e+00       6.763e-03           0.056          -0.015           0.998       3.241e-02          0.1483
 367       2.312e+00       3.886e+00       1.261e-02           0.048          -0.013           0.999       4.268e-02          0.1822
 368       2.173e+00       3.886e+00       1.878e-02           0.037          -0.010           0.999       5.047e-02          0.2084
 369       2.012e+00       3.886e+00       2.415e-02           0.024          -0.007           1.000       5.532e-02          0.2262
 370       1.839e+00       3.886e+00       2.778e-02           0.011          -0.003           1.000       5.696e-02          0.2430
 371       1.663e+00       3.886e+00       2.901e-02          -0.006           0.002           1.000       5.530e-02          0.2561
 372       1.495e+00       3.886e+00       2.700e-02          -0.033           0.009           0.999       5.046e-02          0.2141
 373       1.344e+00       3.886e+00       2.127e-02          -0.057           0.016           0.998       4.271e-02          0.1303
 374       1.219e+00       3.886e+00       1.363e-02          -0.077           0.021           0.997       3.246e-02          0.0057
 375       1.128e+00       3.886e+00       6.383e-03          -0.091           0.025           0.996       2.029e-02         -0.1934
 376       1.076e+00       3.886e+00       1.571e-03          -0.098           0.027           0.995       6.900e-03         -0.6767
Strip 30
 377       2.608e+00       4.193e+00       3.508e-04           0.066          -0.018           0.998       6.289e-03          0.0628
 378       2.577e+00       4.193e+00       2.388e-03           0.063          -0.017           0.998       1.850e-02          0.1047
 379       2.504e+00       4.193e+00       6.763e-03           0.056          -0.015           0.998       2.962e-02          0.1452
 380       2.396e+00       4.193e+00       1.261e-02           0.048          -0.013           0.999       3.901e-02          0.1783
 381       2.257e+00       4.193e+00       1.878e-02           0.037          -0.010           0.999       4.613e-02          0.2039
 382       2.096e+00       4.193e+00       2.415e-02           0.024          -0.007           1.000       5.056e-02          0.2214
 383       1.923e+00       4.193e+00       2.778e-02           0.011          -0.003           1.000       5.206e-02          0.2381
 384       1.747e+00       4.193e+00       2.901e-02          -0.006           0.002           1.000       5.054e-02          0.2511
 385       1.579e+00       4.193e+00       2.700e-02          -0.033           0.009           0.999       4.612e-02          0.2090
 386       1.428e+00       4.193e+00       2.127e-02          -0.057           0.016           0.998       3.903e-02          0.1249
 387       1.303e+00       4.193e+00       1.363e-02          -0.077           0.021           0.997       2.967e-02         -0.0009
 388       1.212e+00       4.193e+00       6.383e-03          -0.091           0.025           0.996       1.854e-02         -0.2034
 389       1.160e+00       4.193e+00       1.571e-03          -0.098           0.027           0.995       6.307e-03         -0.6998
Strip 31
 390       2.684e+00       4.472e+00       3.508e-04           0.066          -0.018           0.998       5.655e-03          0.0609
 391       2.653e+00       4.472e+00       2.388e-03           0.063          -0.017           0.998       1.663e-02          0.1015
 392       2.580e+00       4.472e+00       6.763e-03           0.056          -0.015           0.998       2.663e-02          0.1407
 393       2.472e+00       4.472e+00       1.261e-02           0.048          -0.013           0.999       3.508e-02          0.1727
 394       2.333e+00       4.472e+00       1.878e-02           0.037          -0.010           0.999       4.147e-02          0.1975
 395       2.172e+00       4.472e+00       2.415e-02           0.024          -0.007           1.000       4.546e-02          0.2147
 396       1.999e+00       4.472e+00       2.778e-02           0.011          -0.003           1.000       4.681e-02          0.2314
 397       1.823e+00       4.472e+00       2.901e-02          -0.006           0.002           1.000       4.544e-02          0.2447
 398       1.655e+00       4.472e+00       2.700e-02          -0.033           0.009           0.999       4.147e-02          0.2027
 399       1.504e+00       4.472e+00       2.127e-02          -0.057           0.016           0.998       3.509e-02          0.1183
 400       1.379e+00       4.472e+00       1.363e-02          -0.077           0.021           0.997       2.667e-02         -0.0086
 401       1.288e+00       4.472e+00       6.383e-03          -0.091           0.025           0.996       1.667e-02         -0.2148
 402       1.236e+00       4.472e+00       1.571e-03          -0.098           0.027           0.995       5.671e-03         -0.7261
Strip 32
 403       2.752e+00       4.721e+00       3.508e-04           0.066          -0.018           0.998       4.981e-03          0.0584
 404       2.720e+00       4.721e+00       2.388e-03           0.063          -0.017           0.998       1.465e-02          0.0971
 405       2.648e+00       4.721e+00       6.763e-03           0.056          -0.015           0.998       2.346e-02          0.1343
 406       2.539e+00       4.721e+00       1.261e-02           0.048          -0.013           0.999       3.090e-02          0.1646
 407       2.401e+00       4.721e+00       1.878e-02           0.037          -0.010           0.999       3.653e-02          0.1884
 408       2.240e+00       4.721e+00       2.415e-02           0.024          -0.007           1.000       4.004e-02          0.2052
 409       2.067e+00       4.721e+00       2.778e-02           0.011          -0.003           1.000       4.123e-02          0.2223
 410       1.891e+00       4.721e+00       2.901e-02          -0.006           0.002           1.000       4.003e-02          0.2364
 411       1.723e+00       4.721e+00       2.700e-02          -0.033           0.009           0.999       3.653e-02          0.1953
 412       1.572e+00       4.721e+00       2.127e-02          -0.057           0.016           0.998       3.092e-02          0.1111
 413       1.447e+00       4.721e+00       1.363e-02          -0.077           0.021           0.997       2.350e-02         -0.0169
 414       1.356e+00       4.721e+00       6.383e-03          -0.091           0.025           0.996       1.469e-02         -0.2268
 415       1.303e+00       4.721e+00       1.571e-03          -0.098           0.027           0.995       4.995e-03         -0.7535
Strip 33
 416       2.811e+00       4.937e+00       3.508e-04           0.066          -0.018           0.998       4.274e-03          0.0549
 417       2.779e+00       4.937e+00       2.388e-03           0.063          -0.017           0.998       1.257e-02          0.0909
 418       2.707e+00       4.937e+00       6.763e-03           0.056          -0.015           0.998       2.013e-02          0.1254
 419       2.598e+00       4.937e+00       1.261e-02           0.048          -0.013           0.999       2.651e-02          0.1533
 420       2.460e+00       4.937e+00       1.878e-02           0.037          -0.010           0.999       3.135e-02          0.1753
 421       2.299e+00       4.937e+00       2.415e-02           0.024          -0.007           1.000       3.436e-02          0.1915
 422       2.126e+00       4.937e+00       2.778e-02           0.011          -0.003           1.000       3.538e-02          0.2093
 423       1.950e+00       4.937e+00       2.901e-02          -0.006           0.002           1.000       3.435e-02          0.2254
 424       1.782e+00       4.937e+00       2.700e-02          -0.033           0.009           0.999       3.134e-02          0.1864
 425       1.631e+00       4.937e+00       2.127e-02          -0.057           0.016           0.998       2.653e-02          0.1036
 426       1.506e+00       4.937e+00       1.363e-02          -0.077           0.021           0.997       2.016e-02         -0.0247
 427       1.415e+00       4.937e+00       6.383e-03          -0.091           0.025           0.996       1.260e-02         -0.2378
 428       1.362e+00       4.937e+00       1.571e-03          -0.098           0.027           0.995       4.286e-03         -0.7785
Strip 34
 429       2.861e+00       5.119e+00       3.508e-04           0.066          -0.018           0.998       3.537e-03          0.0503
 430       2.829e+00       5.119e+00       2.388e-03           0.063          -0.017           0.998       1.040e-02          0.0829
 431       2.757e+00       5.119e+00       6.763e-03           0.056          -0.015           0.998       1.666e-02          0.1136
 432       2.648e+00       5.119e+00       1.261e-02           0.048          -0.013           0.999       2.194e-02          0.1381
 433       2.509e+00       5.119e+00       1.878e-02           0.037          -0.010           0.999       2.594e-02          0.1575
 434       2.349e+00       5.119e+00       2.415e-02           0.024          -0.007           1.000       2.844e-02          0.1724
 435       2.175e+00       5.119e+00       2.778e-02           0.011          -0.003           1.000       2.928e-02          0.1908
 436       2.000e+00       5.119e+00       2.901e-02          -0.006           0.002           1.000       2.843e-02          0.2099
 437       1.831e+00       5.119e+00       2.700e-02          -0.033           0.009           0.999       2.594e-02          0.1756
 438       1.681e+00       5.119e+00       2.127e-02          -0.057           0.016           0.998       2.195e-02          0.0968
 439       1.556e+00       5.119e+00       1.363e-02          -0.077           0.021           0.997       1.669e-02         -0.0301
 440       1.465e+00       5.119e+00       6.383e-03          -0.091           0.025           0.996       1.043e-02         -0.2450
 441       1.412e+00       5.119e+00       1.571e-03          -0.098           0.027           0.995       3.547e-03         -0.7951
Strip 35
 442       2.901e+00       5.267e+00       3.508e-04           0.066          -0.018           0.998       2.777e-03          0.0445
 443       2.869e+00       5.267e+00       2.388e-03           0.063          -0.017           0.998       8.167e-03          0.0727
 444       2.797e+00       5.267e+00       6.763e-03           0.056          -0.015           0.998       1.308e-02          0.0986
 445       2.688e+00       5.267e+00       1.261e-02           0.048          -0.013           0.999       1.722e-02          0.1187
 446       2.550e+00       5.267e+00       1.878e-02           0.037          -0.010           0.999       2.036e-02          0.1346
 447       2.389e+00       5.267e+00       2.415e-02           0.024          -0.007           1.000       2.232e-02          0.1471
 448       2.216e+00       5.267e+00       2.778e-02           0.011          -0.003           1.000       2.298e-02          0.1650
 449       2.040e+00       5.267e+00       2.901e-02          -0.006           0.002           1.000       2.232e-02          0.1872
 450       1.872e+00       5.267e+00       2.700e-02          -0.033           0.009           0.999       2.036e-02          0.1606
 451       1.721e+00       5.267e+00       2.127e-02          -0.057           0.016           0.998       1.723e-02          0.0912
 452       1.596e+00       5.267e+00       1.363e-02          -0.077           0.021           0.997       1.310e-02         -0.0299
 453       1.505e+00       5.267e+00       6.383e-03          -0.091           0.025           0.996       8.186e-03         -0.2437
 454       1.452e+00       5.267e+00       1.571e-03          -0.098           0.027           0.995       2.785e-03         -0.7936
Strip 36
 455       2.931e+00       5.378e+00       3.508e-04           0.066          -0.018           0.998       1.997e-03          0.0374
 456       2.900e+00       5.378e+00       2.388e-03           0.063          -0.017           0.998       5.874e-03          0.0601
 457       2.827e+00       5.378e+00       6.763e-03           0.056          -0.015           0.998       9.406e-03          0.0802
 458       2.719e+00       5.378e+00       1.261e-02           0.048          -0.013           0.999       1.239e-02          0.0952
 459       2.580e+00       5.378e+00       1.878e-02           0.037          -0.010           0.999       1.465e-02          0.1070
 460       2.419e+00       5.378e+00       2.415e-02           0.024          -0.007           1.000       1.605e-02          0.1163
 461       2.246e+00       5.378e+00       2.778e-02           0.011          -0.003           1.000       1.653e-02          0.1318
 462       2.070e+00       5.378e+00       2.901e-02          -0.006           0.002           1.000       1.605e-02          0.1547
 463       1.902e+00       5.378e+00       2.700e-02          -0.033           0.009           0.999       1.464e-02          0.1371
 464       1.751e+00       5.378e+00       2.127e-02          -0.057           0.016           0.998       1.239e-02          0.0843
 465       1.627e+00       5.378e+00       1.363e-02          -0.077           0.021           0.997       9.420e-03         -0.0195
 466       1.535e+00       5.378e+00       6.383e-03          -0.091           0.025           0.996       5.887e-03         -0.2253
 467       1.483e+00       5.378e+00       1.571e-03          -0.098           0.027           0.995       2.003e-03         -0.7596
Strip 37
 468       2.952e+00       5.453e+00       3.508e-04           0.066          -0.018           0.998       1.204e-03          0.0289
 469       2.920e+00       5.453e+00       2.388e-03           0.063          -0.017           0.998       3.540e-03          0.0450
 470       2.848e+00       5.453e+00       6.763e-03           0.056          -0.015           0.998       5.669e-03          0.0584
 471       2.739e+00       5.453e+00       1.261e-02           0.048          -0.013           0.999       7.466e-03          0.0681
 472       2.601e+00       5.453e+00       1.878e-02           0.037          -0.010           0.999       8.828e-03          0.0759
 473       2.440e+00       5.453e+00       2.415e-02           0.024          -0.007           1.000       9.676e-03          0.0820
 474       2.267e+00       5.453e+00       2.778e-02           0.011          -0.003           1.000       9.964e-03          0.0933
 475       2.091e+00       5.453e+00       2.901e-02          -0.006           0.002           1.000       9.674e-03          0.1127
 476       1.922e+00       5.453e+00       2.700e-02          -0.033           0.009           0.999       8.827e-03          0.1022
 477       1.772e+00       5.453e+00       2.127e-02          -0.057           0.016           0.998       7.470e-03          0.0684
 478       1.647e+00       5.453e+00       1.363e-02          -0.077           0.021           0.997       5.678e-03         -0.0013
 479       1.556e+00       5.453e+00       6.383e-03          -0.091           0.025           0.996       3.549e-03         -0.1741
 480       1.503e+00       5.453e+00       1.571e-03          -0.098           0.027           0.995       1.207e-03         -0.6717
Strip 38
 481       2.962e+00       5.491e+00       3.508e-04           0.066          -0.018           0.998       4.021e-04          0.0196
 482       2.930e+00       5.491e+00       2.388e-03           0.063          -0.017           0.998       1.183e-03          0.0275
 483       2.858e+00       5.491e+00       6.763e-03           0.056          -0.015           0.998       1.894e-03          0.0347
 484       2.749e+00       5.491e+00       1.261e-02           0.048          -0.013           0.999       2.494e-03          0.0401
 485       2.611e+00       5.491e+00       1.878e-02           0.037          -0.010           0.999       2.949e-03          0.0445
 486       2.450e+00       5.491e+00       2.415e-02           0.024          -0.007           1.000       3.233e-03          0.0479
 487       2.277e+00       5.491e+00       2.778e-02           0.011          -0.003           1.000       3.329e-03          0.0546
 488       2.101e+00       5.491e+00       2.901e-02          -0.006           0.002           1.000       3.232e-03          0.0667
 489       1.933e+00       5.491e+00       2.700e-02          -0.033           0.009           0.999       2.949e-03          0.0610
 490       1.782e+00       5.491e+00       2.127e-02          -0.057           0.016           0.998       2.496e-03          0.0423
 491       1.657e+00       5.491e+00       1.363e-02          -0.077           0.021           0.997       1.897e-03          0.0048
 492       1.566e+00       5.491e+00       6.383e-03          -0.091           0.025           0.996       1.186e-03         -0.0883
 493       1.513e+00       5.491e+00       1.571e-03          -0.098           0.027           0.995       4.033e-04         -0.4889










