xflr5 v6.47

Flying_wing_8
T1-55.0 m/s-VLM2-Inviscid
QInf  =   55.000000 m/s
Alpha =    0.000000
Beta  =    0.000°
Phi   =    0.000°
Ctrl  =    0.000
CL    =    0.137761
Cy    =   -0.000000
Cd    =    0.000932     ICd   =    0.000932     PCd   =    0.000000
Cl   = -6.59921e-17
Cm   =   -0.016711
ICn   =   -0.000000     PCn   =   -0.000000 
XCP   =    2.547945     YCP   =    0.000000     ZCP   =    0.025344  
XNP   =    0.000000
Bending = 5062.307550

Main Wing
  y-span        Chord      Ai         Cl        PCd          ICd        CmGeom    CmAirf@chord/4    XTrtop    XTrBot      XCP       BM
   -5.4906     1.4700    -1.616    0.032708    0.000000    0.000915   -0.044063   -0.011141     0.0000    0.0000    0.5934    0.0000
   -5.4531     1.4700    -1.516    0.055232    0.000000    0.001461   -0.073778   -0.018675     0.0000    0.0000    0.5884    0.0629
   -5.3783     1.4700    -1.384    0.077329    0.000000    0.001868   -0.100469   -0.025772     0.0000    0.0000    0.5834    0.8215
   -5.2668     1.4700    -1.229    0.096453    0.000000    0.002069   -0.120303   -0.031771     0.0000    0.0000    0.5794    4.1469
   -5.1194     1.4700    -1.065    0.111978    0.000000    0.002081   -0.132119   -0.036479     0.0000    0.0000    0.5758   13.5781
   -4.9369     1.4700    -0.903    0.123898    0.000000    0.001952   -0.135928   -0.039889     0.0000    0.0000    0.5720   34.4546
   -4.7208     1.4700    -0.755    0.132634    0.000000    0.001748   -0.132569   -0.042169     0.0000    0.0000    0.5679   73.7760
   -4.4723     1.4700    -0.631    0.138833    0.000000    0.001528   -0.123303   -0.043606     0.0000    0.0000    0.5641   139.8769
   -4.1934     1.4700    -0.532    0.143136    0.000000    0.001329   -0.109375   -0.044493     0.0000    0.0000    0.5608   242.0132
   -3.8858     1.4700    -0.456    0.146036    0.000000    0.001162   -0.091801   -0.045051     0.0000    0.0000    0.5585   389.9235
   -3.5516     1.4700    -0.398    0.147861    0.000000    0.001026   -0.071361   -0.045415     0.0000    0.0000    0.5571   593.3843
   -3.1932     1.4700    -0.353    0.148813    0.000000    0.000917   -0.048688   -0.045665     0.0000    0.0000    0.5569   861.7634
   -2.8130     1.4700    -0.318    0.148998    0.000000    0.000828   -0.024350   -0.045849     0.0000    0.0000    0.5577   1203.5776
   -2.4135     1.4700    -0.291    0.148447    0.000000    0.000753    0.001091   -0.045999     0.0000    0.0000    0.5599   1626.0643
   -1.9976     1.4700    -0.267    0.147115    0.000000    0.000687    0.027009   -0.046147     0.0000    0.0000    0.5637   2134.7721
   -1.5680     1.4700    -0.245    0.144857    0.000000    0.000619    0.052631   -0.046340     0.0000    0.0000    0.5699   2733.1730
   -1.1277     1.4700    -0.216    0.141388    0.000000    0.000533    0.076867   -0.046683     0.0000    0.0000    0.5802   3422.2923
   -0.6797     1.4700    -0.160    0.136198    0.000000    0.000380    0.097960   -0.047469     0.0000    0.0000    0.5985   4200.3395
   -0.2271     1.4700     0.029    0.128596    0.000000   -0.000066    0.112919   -0.049590     0.0000    0.0000    0.6356   5062.3076
    0.2271     1.4700     0.029    0.128596    0.000000   -0.000066    0.112919   -0.049590     0.0000    0.0000    0.6356   5062.3076
    0.6797     1.4700    -0.160    0.136198    0.000000    0.000380    0.097960   -0.047469     0.0000    0.0000    0.5985   4200.3395
    1.1277     1.4700    -0.216    0.141388    0.000000    0.000533    0.076867   -0.046683     0.0000    0.0000    0.5802   3422.2923
    1.5680     1.4700    -0.245    0.144857    0.000000    0.000619    0.052631   -0.046340     0.0000    0.0000    0.5699   2733.1730
    1.9976     1.4700    -0.267    0.147115    0.000000    0.000687    0.027009   -0.046147     0.0000    0.0000    0.5637   2134.7721
    2.4135     1.4700    -0.291    0.148447    0.000000    0.000753    0.001091   -0.045999     0.0000    0.0000    0.5599   1626.0643
    2.8130     1.4700    -0.318    0.148998    0.000000    0.000828   -0.024350   -0.045849     0.0000    0.0000    0.5577   1203.5776
    3.1932     1.4700    -0.353    0.148813    0.000000    0.000917   -0.048688   -0.045665     0.0000    0.0000    0.5569   861.7634
    3.5516     1.4700    -0.398    0.147861    0.000000    0.001026   -0.071361   -0.045415     0.0000    0.0000    0.5571   593.3843
    3.8858     1.4700    -0.456    0.146036    0.000000    0.001162   -0.091801   -0.045051     0.0000    0.0000    0.5585   389.9235
    4.1934     1.4700    -0.532    0.143136    0.000000    0.001329   -0.109375   -0.044493     0.0000    0.0000    0.5608   242.0132
    4.4723     1.4700    -0.631    0.138833    0.000000    0.001528   -0.123303   -0.043606     0.0000    0.0000    0.5641   139.8769
    4.7208     1.4700    -0.755    0.132634    0.000000    0.001748   -0.132569   -0.042169     0.0000    0.0000    0.5679   73.7760
    4.9369     1.4700    -0.903    0.123898    0.000000    0.001952   -0.135928   -0.039889     0.0000    0.0000    0.5720   34.4546
    5.1194     1.4700    -1.065    0.111978    0.000000    0.002081   -0.132119   -0.036479     0.0000    0.0000    0.5758   13.5781
    5.2668     1.4700    -1.229    0.096453    0.000000    0.002069   -0.120303   -0.031771     0.0000    0.0000    0.5794    4.1469
    5.3783     1.4700    -1.384    0.077329    0.000000    0.001868   -0.100469   -0.025772     0.0000    0.0000    0.5834    0.8215
    5.4531     1.4700    -1.516    0.055232    0.000000    0.001461   -0.073778   -0.018675     0.0000    0.0000    0.5884    0.0629
    5.4906     1.4700    -1.616    0.032708    0.000000    0.000915   -0.044063   -0.011141     0.0000    0.0000    0.5934    0.0000


Main Wing Cp Coefficients
 Panel     CtrlPt.x        CtrlPt.y        CtrlPt.z       Nx      Ny       Nz        Area       Cp
Main WingCp Coefficients
Strip 1
   0       4.959e+00      -5.491e+00       3.508e-04           0.066           0.042           0.997       4.024e-04          0.0158
   1       4.927e+00      -5.491e+00       2.388e-03           0.063           0.040           0.997       1.184e-03          0.0225
   2       4.855e+00      -5.491e+00       6.763e-03           0.056           0.036           0.998       1.895e-03          0.0293
   3       4.746e+00      -5.491e+00       1.261e-02           0.048           0.030           0.998       2.495e-03          0.0347
   4       4.607e+00      -5.491e+00       1.878e-02           0.037           0.023           0.999       2.950e-03          0.0395
   5       4.447e+00      -5.491e+00       2.415e-02           0.024           0.015           1.000       3.233e-03          0.0435
   6       4.273e+00      -5.491e+00       2.778e-02           0.011           0.007           1.000       3.329e-03          0.0510
   7       4.097e+00      -5.491e+00       2.901e-02          -0.006          -0.004           1.000       3.232e-03          0.0645
   8       3.929e+00      -5.491e+00       2.700e-02          -0.033          -0.021           0.999       2.949e-03          0.0625
   9       3.778e+00      -5.491e+00       2.127e-02          -0.057          -0.036           0.998       2.497e-03          0.0487
  10       3.654e+00      -5.491e+00       1.363e-02          -0.077          -0.049           0.996       1.899e-03          0.0182
  11       3.563e+00      -5.491e+00       6.383e-03          -0.090          -0.058           0.994       1.187e-03         -0.0627
  12       3.510e+00      -5.491e+00       1.571e-03          -0.097          -0.062           0.993       4.039e-04         -0.4425
Strip 2
  13       4.935e+00      -5.453e+00       3.508e-04           0.066           0.042           0.997       1.205e-03          0.0227
  14       4.903e+00      -5.453e+00       2.388e-03           0.063           0.040           0.997       3.543e-03          0.0365
  15       4.831e+00      -5.453e+00       6.763e-03           0.056           0.036           0.998       5.672e-03          0.0491
  16       4.722e+00      -5.453e+00       1.261e-02           0.048           0.030           0.998       7.469e-03          0.0590
  17       4.583e+00      -5.453e+00       1.878e-02           0.037           0.023           0.999       8.830e-03          0.0675
  18       4.423e+00      -5.453e+00       2.415e-02           0.024           0.015           1.000       9.677e-03          0.0747
  19       4.249e+00      -5.453e+00       2.778e-02           0.011           0.007           1.000       9.964e-03          0.0874
  20       4.074e+00      -5.453e+00       2.901e-02          -0.006          -0.004           1.000       9.674e-03          0.1091
  21       3.905e+00      -5.453e+00       2.700e-02          -0.033          -0.021           0.999       8.828e-03          0.1047
  22       3.754e+00      -5.453e+00       2.127e-02          -0.057          -0.036           0.998       7.475e-03          0.0790
  23       3.630e+00      -5.453e+00       1.363e-02          -0.077          -0.049           0.996       5.683e-03          0.0189
  24       3.539e+00      -5.453e+00       6.383e-03          -0.090          -0.058           0.994       3.553e-03         -0.1394
  25       3.486e+00      -5.453e+00       1.571e-03          -0.097          -0.062           0.993       1.209e-03         -0.5612
Strip 3
  26       4.887e+00      -5.378e+00       3.508e-04           0.066           0.042           0.997       1.998e-03          0.0306
  27       4.856e+00      -5.378e+00       2.388e-03           0.063           0.040           0.997       5.877e-03          0.0497
  28       4.783e+00      -5.378e+00       6.763e-03           0.056           0.036           0.998       9.411e-03          0.0679
  29       4.675e+00      -5.378e+00       1.261e-02           0.048           0.030           0.998       1.239e-02          0.0827
  30       4.536e+00      -5.378e+00       1.878e-02           0.037           0.023           0.999       1.465e-02          0.0955
  31       4.375e+00      -5.378e+00       2.415e-02           0.024           0.015           1.000       1.606e-02          0.1066
  32       4.202e+00      -5.378e+00       2.778e-02           0.011           0.007           1.000       1.653e-02          0.1244
  33       4.026e+00      -5.378e+00       2.901e-02          -0.006          -0.004           1.000       1.605e-02          0.1502
  34       3.858e+00      -5.378e+00       2.700e-02          -0.033          -0.021           0.999       1.465e-02          0.1398
  35       3.707e+00      -5.378e+00       2.127e-02          -0.057          -0.036           0.998       1.240e-02          0.0957
  36       3.582e+00      -5.378e+00       1.363e-02          -0.077          -0.049           0.996       9.429e-03          0.0026
  37       3.491e+00      -5.378e+00       6.383e-03          -0.090          -0.058           0.994       5.895e-03         -0.1728
  38       3.439e+00      -5.378e+00       1.571e-03          -0.097          -0.062           0.993       2.006e-03         -0.6051
Strip 4
  39       4.816e+00      -5.267e+00       3.508e-04           0.066           0.042           0.997       2.779e-03          0.0374
  40       4.785e+00      -5.267e+00       2.388e-03           0.063           0.040           0.997       8.172e-03          0.0616
  41       4.712e+00      -5.267e+00       6.763e-03           0.056           0.036           0.998       1.308e-02          0.0848
  42       4.604e+00      -5.267e+00       1.261e-02           0.048           0.030           0.998       1.723e-02          0.1043
  43       4.465e+00      -5.267e+00       1.878e-02           0.037           0.023           0.999       2.037e-02          0.1211
  44       4.304e+00      -5.267e+00       2.415e-02           0.024           0.015           1.000       2.232e-02          0.1359
  45       4.131e+00      -5.267e+00       2.778e-02           0.011           0.007           1.000       2.298e-02          0.1565
  46       3.955e+00      -5.267e+00       2.901e-02          -0.006          -0.004           1.000       2.232e-02          0.1810
  47       3.787e+00      -5.267e+00       2.700e-02          -0.033          -0.021           0.999       2.037e-02          0.1609
  48       3.636e+00      -5.267e+00       2.127e-02          -0.057          -0.036           0.998       1.724e-02          0.1003
  49       3.511e+00      -5.267e+00       1.363e-02          -0.077          -0.049           0.996       1.311e-02         -0.0041
  50       3.420e+00      -5.267e+00       6.383e-03          -0.090          -0.058           0.994       8.197e-03         -0.1795
  51       3.368e+00      -5.267e+00       1.571e-03          -0.097          -0.062           0.993       2.789e-03         -0.6136
Strip 5
  52       4.722e+00      -5.119e+00       3.508e-04           0.066           0.042           0.997       3.540e-03          0.0433
  53       4.691e+00      -5.119e+00       2.388e-03           0.063           0.040           0.997       1.041e-02          0.0718
  54       4.618e+00      -5.119e+00       6.763e-03           0.056           0.036           0.998       1.667e-02          0.0995
  55       4.510e+00      -5.119e+00       1.261e-02           0.048           0.030           0.998       2.195e-02          0.1229
  56       4.371e+00      -5.119e+00       1.878e-02           0.037           0.023           0.999       2.595e-02          0.1430
  57       4.210e+00      -5.119e+00       2.415e-02           0.024           0.015           1.000       2.844e-02          0.1600
  58       4.037e+00      -5.119e+00       2.778e-02           0.011           0.007           1.000       2.928e-02          0.1804
  59       3.861e+00      -5.119e+00       2.901e-02          -0.006          -0.004           1.000       2.843e-02          0.2005
  60       3.693e+00      -5.119e+00       2.700e-02          -0.033          -0.021           0.999       2.594e-02          0.1721
  61       3.542e+00      -5.119e+00       2.127e-02          -0.057          -0.036           0.998       2.197e-02          0.1043
  62       3.417e+00      -5.119e+00       1.363e-02          -0.077          -0.049           0.996       1.670e-02         -0.0021
  63       3.326e+00      -5.119e+00       6.383e-03          -0.090          -0.058           0.994       1.044e-02         -0.1761
  64       3.274e+00      -5.119e+00       1.571e-03          -0.097          -0.062           0.993       3.553e-03         -0.6044
Strip 6
  65       4.606e+00      -4.937e+00       3.508e-04           0.066           0.042           0.997       4.277e-03          0.0481
  66       4.575e+00      -4.937e+00       2.388e-03           0.063           0.040           0.997       1.258e-02          0.0801
  67       4.502e+00      -4.937e+00       6.763e-03           0.056           0.036           0.998       2.014e-02          0.1114
  68       4.394e+00      -4.937e+00       1.261e-02           0.048           0.030           0.998       2.652e-02          0.1379
  69       4.255e+00      -4.937e+00       1.878e-02           0.037           0.023           0.999       3.135e-02          0.1600
  70       4.094e+00      -4.937e+00       2.415e-02           0.024           0.015           1.000       3.436e-02          0.1775
  71       3.921e+00      -4.937e+00       2.778e-02           0.011           0.007           1.000       3.538e-02          0.1961
  72       3.745e+00      -4.937e+00       2.901e-02          -0.006          -0.004           1.000       3.435e-02          0.2123
  73       3.577e+00      -4.937e+00       2.700e-02          -0.033          -0.021           0.999       3.135e-02          0.1797
  74       3.426e+00      -4.937e+00       2.127e-02          -0.057          -0.036           0.998       2.654e-02          0.1096
  75       3.301e+00      -4.937e+00       1.363e-02          -0.077          -0.049           0.996       2.018e-02          0.0030
  76       3.210e+00      -4.937e+00       6.383e-03          -0.090          -0.058           0.994       1.262e-02         -0.1688
  77       3.158e+00      -4.937e+00       1.571e-03          -0.097          -0.062           0.993       4.293e-03         -0.5878
Strip 7
  78       4.469e+00      -4.721e+00       3.508e-04           0.066           0.042           0.997       4.985e-03          0.0518
  79       4.437e+00      -4.721e+00       2.388e-03           0.063           0.040           0.997       1.466e-02          0.0864
  80       4.365e+00      -4.721e+00       6.763e-03           0.056           0.036           0.998       2.347e-02          0.1203
  81       4.256e+00      -4.721e+00       1.261e-02           0.048           0.030           0.998       3.091e-02          0.1487
  82       4.117e+00      -4.721e+00       1.878e-02           0.037           0.023           0.999       3.654e-02          0.1718
  83       3.957e+00      -4.721e+00       2.415e-02           0.024           0.015           1.000       4.005e-02          0.1890
  84       3.783e+00      -4.721e+00       2.778e-02           0.011           0.007           1.000       4.123e-02          0.2060
  85       3.608e+00      -4.721e+00       2.901e-02          -0.006          -0.004           1.000       4.003e-02          0.2201
  86       3.439e+00      -4.721e+00       2.700e-02          -0.033          -0.021           0.999       3.653e-02          0.1858
  87       3.288e+00      -4.721e+00       2.127e-02          -0.057          -0.036           0.998       3.093e-02          0.1149
  88       3.164e+00      -4.721e+00       1.363e-02          -0.077          -0.049           0.996       2.352e-02          0.0087
  89       3.073e+00      -4.721e+00       6.383e-03          -0.090          -0.058           0.994       1.471e-02         -0.1609
  90       3.020e+00      -4.721e+00       1.571e-03          -0.097          -0.062           0.993       5.003e-03         -0.5698
Strip 8
  91       4.311e+00      -4.472e+00       3.508e-04           0.066           0.042           0.997       5.659e-03          0.0543
  92       4.279e+00      -4.472e+00       2.388e-03           0.063           0.040           0.997       1.664e-02          0.0908
  93       4.207e+00      -4.472e+00       6.763e-03           0.056           0.036           0.998       2.665e-02          0.1263
  94       4.098e+00      -4.472e+00       1.261e-02           0.048           0.030           0.998       3.509e-02          0.1559
  95       3.959e+00      -4.472e+00       1.878e-02           0.037           0.023           0.999       4.148e-02          0.1794
  96       3.799e+00      -4.472e+00       2.415e-02           0.024           0.015           1.000       4.546e-02          0.1962
  97       3.625e+00      -4.472e+00       2.778e-02           0.011           0.007           1.000       4.681e-02          0.2125
  98       3.449e+00      -4.472e+00       2.901e-02          -0.006          -0.004           1.000       4.544e-02          0.2256
  99       3.281e+00      -4.472e+00       2.700e-02          -0.033          -0.021           0.999       4.147e-02          0.1906
 100       3.130e+00      -4.472e+00       2.127e-02          -0.057          -0.036           0.998       3.511e-02          0.1195
 101       3.006e+00      -4.472e+00       1.363e-02          -0.077          -0.049           0.996       2.670e-02          0.0138
 102       2.915e+00      -4.472e+00       6.383e-03          -0.090          -0.058           0.994       1.669e-02         -0.1536
 103       2.862e+00      -4.472e+00       1.571e-03          -0.097          -0.062           0.993       5.680e-03         -0.5535
Strip 9
 104       4.133e+00      -4.193e+00       3.508e-04           0.066           0.042           0.997       6.294e-03          0.0560
 105       4.101e+00      -4.193e+00       2.388e-03           0.063           0.040           0.997       1.851e-02          0.0935
 106       4.029e+00      -4.193e+00       6.763e-03           0.056           0.036           0.998       2.964e-02          0.1301
 107       3.921e+00      -4.193e+00       1.261e-02           0.048           0.030           0.998       3.903e-02          0.1604
 108       3.782e+00      -4.193e+00       1.878e-02           0.037           0.023           0.999       4.614e-02          0.1842
 109       3.621e+00      -4.193e+00       2.415e-02           0.024           0.015           1.000       5.056e-02          0.2009
 110       3.448e+00      -4.193e+00       2.778e-02           0.011           0.007           1.000       5.206e-02          0.2168
 111       3.272e+00      -4.193e+00       2.901e-02          -0.006          -0.004           1.000       5.055e-02          0.2296
 112       3.104e+00      -4.193e+00       2.700e-02          -0.033          -0.021           0.999       4.613e-02          0.1943
 113       2.953e+00      -4.193e+00       2.127e-02          -0.057          -0.036           0.998       3.905e-02          0.1232
 114       2.828e+00      -4.193e+00       1.363e-02          -0.077          -0.049           0.996       2.969e-02          0.0178
 115       2.737e+00      -4.193e+00       6.383e-03          -0.090          -0.058           0.994       1.857e-02         -0.1478
 116       2.685e+00      -4.193e+00       1.571e-03          -0.097          -0.062           0.993       6.317e-03         -0.5404
Strip 10
 117       3.937e+00      -3.886e+00       3.508e-04           0.066           0.042           0.997       6.886e-03          0.0570
 118       3.906e+00      -3.886e+00       2.388e-03           0.063           0.040           0.997       2.025e-02          0.0953
 119       3.833e+00      -3.886e+00       6.763e-03           0.056           0.036           0.998       3.243e-02          0.1325
 120       3.725e+00      -3.886e+00       1.261e-02           0.048           0.030           0.998       4.270e-02          0.1632
 121       3.586e+00      -3.886e+00       1.878e-02           0.037           0.023           0.999       5.048e-02          0.1872
 122       3.425e+00      -3.886e+00       2.415e-02           0.024           0.015           1.000       5.532e-02          0.2040
 123       3.252e+00      -3.886e+00       2.778e-02           0.011           0.007           1.000       5.696e-02          0.2198
 124       3.076e+00      -3.886e+00       2.901e-02          -0.006          -0.004           1.000       5.530e-02          0.2323
 125       2.908e+00      -3.886e+00       2.700e-02          -0.033          -0.021           0.999       5.047e-02          0.1969
 126       2.757e+00      -3.886e+00       2.127e-02          -0.057          -0.036           0.998       4.273e-02          0.1258
 127       2.632e+00      -3.886e+00       1.363e-02          -0.077          -0.049           0.996       3.249e-02          0.0207
 128       2.541e+00      -3.886e+00       6.383e-03          -0.090          -0.058           0.994       2.031e-02         -0.1437
 129       2.489e+00      -3.886e+00       1.571e-03          -0.097          -0.062           0.993       6.911e-03         -0.5311
Strip 11
 130       3.725e+00      -3.552e+00       3.508e-04           0.066           0.042           0.997       7.431e-03          0.0576
 131       3.693e+00      -3.552e+00       2.388e-03           0.063           0.040           0.997       2.186e-02          0.0963
 132       3.621e+00      -3.552e+00       6.763e-03           0.056           0.036           0.998       3.499e-02          0.1340
 133       3.512e+00      -3.552e+00       1.261e-02           0.048           0.030           0.998       4.608e-02          0.1650
 134       3.373e+00      -3.552e+00       1.878e-02           0.037           0.023           0.999       5.447e-02          0.1892
 135       3.213e+00      -3.552e+00       2.415e-02           0.024           0.015           1.000       5.970e-02          0.2060
 136       3.039e+00      -3.552e+00       2.778e-02           0.011           0.007           1.000       6.147e-02          0.2217
 137       2.864e+00      -3.552e+00       2.901e-02          -0.006          -0.004           1.000       5.968e-02          0.2341
 138       2.695e+00      -3.552e+00       2.700e-02          -0.033          -0.021           0.999       5.446e-02          0.1986
 139       2.544e+00      -3.552e+00       2.127e-02          -0.057          -0.036           0.998       4.611e-02          0.1274
 140       2.420e+00      -3.552e+00       1.363e-02          -0.077          -0.049           0.996       3.506e-02          0.0225
 141       2.329e+00      -3.552e+00       6.383e-03          -0.090          -0.058           0.994       2.192e-02         -0.1414
 142       2.276e+00      -3.552e+00       1.571e-03          -0.097          -0.062           0.993       7.458e-03         -0.5260
Strip 12
 143       3.497e+00      -3.193e+00       3.508e-04           0.066           0.042           0.997       7.925e-03          0.0580
 144       3.465e+00      -3.193e+00       2.388e-03           0.063           0.040           0.997       2.331e-02          0.0970
 145       3.393e+00      -3.193e+00       6.763e-03           0.056           0.036           0.998       3.732e-02          0.1349
 146       3.284e+00      -3.193e+00       1.261e-02           0.048           0.030           0.998       4.914e-02          0.1661
 147       3.145e+00      -3.193e+00       1.878e-02           0.037           0.023           0.999       5.810e-02          0.1904
 148       2.985e+00      -3.193e+00       2.415e-02           0.024           0.015           1.000       6.367e-02          0.2072
 149       2.811e+00      -3.193e+00       2.778e-02           0.011           0.007           1.000       6.556e-02          0.2228
 150       2.635e+00      -3.193e+00       2.901e-02          -0.006          -0.004           1.000       6.365e-02          0.2352
 151       2.467e+00      -3.193e+00       2.700e-02          -0.033          -0.021           0.999       5.809e-02          0.1995
 152       2.316e+00      -3.193e+00       2.127e-02          -0.057          -0.036           0.998       4.918e-02          0.1281
 153       2.192e+00      -3.193e+00       1.363e-02          -0.077          -0.049           0.996       3.739e-02          0.0230
 154       2.101e+00      -3.193e+00       6.383e-03          -0.090          -0.058           0.994       2.338e-02         -0.1409
 155       2.048e+00      -3.193e+00       1.571e-03          -0.097          -0.062           0.993       7.955e-03         -0.5251
Strip 13
 156       3.255e+00      -2.813e+00       3.508e-04           0.066           0.042           0.997       8.366e-03          0.0583
 157       3.223e+00      -2.813e+00       2.388e-03           0.063           0.040           0.997       2.460e-02          0.0974
 158       3.151e+00      -2.813e+00       6.763e-03           0.056           0.036           0.998       3.939e-02          0.1355
 159       3.042e+00      -2.813e+00       1.261e-02           0.048           0.030           0.998       5.187e-02          0.1668
 160       2.903e+00      -2.813e+00       1.878e-02           0.037           0.023           0.999       6.133e-02          0.1911
 161       2.743e+00      -2.813e+00       2.415e-02           0.024           0.015           1.000       6.721e-02          0.2078
 162       2.569e+00      -2.813e+00       2.778e-02           0.011           0.007           1.000       6.920e-02          0.2233
 163       2.393e+00      -2.813e+00       2.901e-02          -0.006          -0.004           1.000       6.718e-02          0.2355
 164       2.225e+00      -2.813e+00       2.700e-02          -0.033          -0.021           0.999       6.131e-02          0.1995
 165       2.074e+00      -2.813e+00       2.127e-02          -0.057          -0.036           0.998       5.191e-02          0.1278
 166       1.950e+00      -2.813e+00       1.363e-02          -0.077          -0.049           0.996       3.947e-02          0.0223
 167       1.859e+00      -2.813e+00       6.383e-03          -0.090          -0.058           0.994       2.468e-02         -0.1423
 168       1.806e+00      -2.813e+00       1.571e-03          -0.097          -0.062           0.993       8.396e-03         -0.5287
Strip 14
 169       3.001e+00      -2.414e+00       3.508e-04           0.066           0.042           0.997       8.749e-03          0.0584
 170       2.969e+00      -2.414e+00       2.388e-03           0.063           0.040           0.997       2.573e-02          0.0976
 171       2.897e+00      -2.414e+00       6.763e-03           0.056           0.036           0.998       4.120e-02          0.1357
 172       2.788e+00      -2.414e+00       1.261e-02           0.048           0.030           0.998       5.425e-02          0.1671
 173       2.649e+00      -2.414e+00       1.878e-02           0.037           0.023           0.999       6.413e-02          0.1913
 174       2.488e+00      -2.414e+00       2.415e-02           0.024           0.015           1.000       7.029e-02          0.2080
 175       2.315e+00      -2.414e+00       2.778e-02           0.011           0.007           1.000       7.237e-02          0.2233
 176       2.139e+00      -2.414e+00       2.901e-02          -0.006          -0.004           1.000       7.026e-02          0.2352
 177       1.971e+00      -2.414e+00       2.700e-02          -0.033          -0.021           0.999       6.412e-02          0.1988
 178       1.820e+00      -2.414e+00       2.127e-02          -0.057          -0.036           0.998       5.429e-02          0.1266
 179       1.696e+00      -2.414e+00       1.363e-02          -0.077          -0.049           0.996       4.128e-02          0.0203
 180       1.604e+00      -2.414e+00       6.383e-03          -0.090          -0.058           0.994       2.581e-02         -0.1458
 181       1.552e+00      -2.414e+00       1.571e-03          -0.097          -0.062           0.993       8.781e-03         -0.5375
Strip 15
 182       2.736e+00      -1.998e+00       3.508e-04           0.066           0.042           0.997       9.072e-03          0.0585
 183       2.704e+00      -1.998e+00       2.388e-03           0.063           0.040           0.997       2.668e-02          0.0977
 184       2.632e+00      -1.998e+00       6.763e-03           0.056           0.036           0.998       4.272e-02          0.1358
 185       2.523e+00      -1.998e+00       1.261e-02           0.048           0.030           0.998       5.625e-02          0.1671
 186       2.384e+00      -1.998e+00       1.878e-02           0.037           0.023           0.999       6.650e-02          0.1913
 187       2.224e+00      -1.998e+00       2.415e-02           0.024           0.015           1.000       7.289e-02          0.2077
 188       2.050e+00      -1.998e+00       2.778e-02           0.011           0.007           1.000       7.504e-02          0.2227
 189       1.875e+00      -1.998e+00       2.901e-02          -0.006          -0.004           1.000       7.286e-02          0.2342
 190       1.706e+00      -1.998e+00       2.700e-02          -0.033          -0.021           0.999       6.649e-02          0.1973
 191       1.556e+00      -1.998e+00       2.127e-02          -0.057          -0.036           0.998       5.629e-02          0.1242
 192       1.431e+00      -1.998e+00       1.363e-02          -0.077          -0.049           0.996       4.280e-02          0.0167
 193       1.340e+00      -1.998e+00       6.383e-03          -0.090          -0.058           0.994       2.676e-02         -0.1521
 194       1.287e+00      -1.998e+00       1.571e-03          -0.097          -0.062           0.993       9.105e-03         -0.5527
Strip 16
 195       2.462e+00      -1.568e+00       3.508e-04           0.066           0.042           0.997       9.333e-03          0.0585
 196       2.431e+00      -1.568e+00       2.388e-03           0.063           0.040           0.997       2.745e-02          0.0977
 197       2.358e+00      -1.568e+00       6.763e-03           0.056           0.036           0.998       4.395e-02          0.1358
 198       2.250e+00      -1.568e+00       1.261e-02           0.048           0.030           0.998       5.787e-02          0.1670
 199       2.111e+00      -1.568e+00       1.878e-02           0.037           0.023           0.999       6.842e-02          0.1909
 200       1.950e+00      -1.568e+00       2.415e-02           0.024           0.015           1.000       7.499e-02          0.2071
 201       1.777e+00      -1.568e+00       2.778e-02           0.011           0.007           1.000       7.720e-02          0.2216
 202       1.601e+00      -1.568e+00       2.901e-02          -0.006          -0.004           1.000       7.496e-02          0.2325
 203       1.433e+00      -1.568e+00       2.700e-02          -0.033          -0.021           0.999       6.841e-02          0.1947
 204       1.282e+00      -1.568e+00       2.127e-02          -0.057          -0.036           0.998       5.792e-02          0.1204
 205       1.158e+00      -1.568e+00       1.363e-02          -0.077          -0.049           0.996       4.404e-02          0.0109
 206       1.066e+00      -1.568e+00       6.383e-03          -0.090          -0.058           0.994       2.753e-02         -0.1620
 207       1.014e+00      -1.568e+00       1.571e-03          -0.097          -0.062           0.993       9.368e-03         -0.5768
Strip 17
 208       2.182e+00      -1.128e+00       3.508e-04           0.066           0.042           0.997       9.531e-03          0.0585
 209       2.151e+00      -1.128e+00       2.388e-03           0.063           0.040           0.997       2.803e-02          0.0978
 210       2.078e+00      -1.128e+00       6.763e-03           0.056           0.036           0.998       4.488e-02          0.1358
 211       1.970e+00      -1.128e+00       1.261e-02           0.048           0.030           0.998       5.910e-02          0.1669
 212       1.831e+00      -1.128e+00       1.878e-02           0.037           0.023           0.999       6.987e-02          0.1906
 213       1.670e+00      -1.128e+00       2.415e-02           0.024           0.015           1.000       7.657e-02          0.2063
 214       1.497e+00      -1.128e+00       2.778e-02           0.011           0.007           1.000       7.884e-02          0.2201
 215       1.321e+00      -1.128e+00       2.901e-02          -0.006          -0.004           1.000       7.654e-02          0.2299
 216       1.153e+00      -1.128e+00       2.700e-02          -0.033          -0.021           0.999       6.985e-02          0.1906
 217       1.002e+00      -1.128e+00       2.127e-02          -0.057          -0.036           0.998       5.914e-02          0.1143
 218       8.773e-01      -1.128e+00       1.363e-02          -0.077          -0.049           0.996       4.497e-02          0.0017
 219       7.861e-01      -1.128e+00       6.383e-03          -0.090          -0.058           0.994       2.812e-02         -0.1777
 220       7.337e-01      -1.128e+00       1.571e-03          -0.097          -0.062           0.993       9.566e-03         -0.6147
Strip 18
 221       1.897e+00      -6.797e-01       3.508e-04           0.066           0.042           0.997       9.663e-03          0.0590
 222       1.865e+00      -6.797e-01       2.388e-03           0.063           0.040           0.997       2.842e-02          0.0985
 223       1.793e+00      -6.797e-01       6.763e-03           0.056           0.036           0.998       4.551e-02          0.1368
 224       1.685e+00      -6.797e-01       1.261e-02           0.048           0.030           0.998       5.992e-02          0.1679
 225       1.546e+00      -6.797e-01       1.878e-02           0.037           0.023           0.999       7.084e-02          0.1913
 226       1.385e+00      -6.797e-01       2.415e-02           0.024           0.015           1.000       7.764e-02          0.2060
 227       1.212e+00      -6.797e-01       2.778e-02           0.011           0.007           1.000       7.993e-02          0.2182
 228       1.036e+00      -6.797e-01       2.901e-02          -0.006          -0.004           1.000       7.761e-02          0.2257
 229       8.677e-01      -6.797e-01       2.700e-02          -0.033          -0.021           0.999       7.082e-02          0.1837
 230       7.169e-01      -6.797e-01       2.127e-02          -0.057          -0.036           0.998       5.996e-02          0.1040
 231       5.922e-01      -6.797e-01       1.363e-02          -0.077          -0.049           0.996       4.559e-02         -0.0135
 232       5.010e-01      -6.797e-01       6.383e-03          -0.090          -0.058           0.994       2.851e-02         -0.2029
 233       4.486e-01      -6.797e-01       1.571e-03          -0.097          -0.062           0.993       9.699e-03         -0.6752
Strip 19
 234       1.609e+00      -2.271e-01       3.508e-04           0.066           0.042           0.997       9.730e-03          0.0620
 235       1.577e+00      -2.271e-01       2.388e-03           0.063           0.040           0.997       2.862e-02          0.1037
 236       1.505e+00      -2.271e-01       6.763e-03           0.056           0.036           0.998       4.582e-02          0.1436
 237       1.397e+00      -2.271e-01       1.261e-02           0.048           0.030           0.998       6.033e-02          0.1750
 238       1.258e+00      -2.271e-01       1.878e-02           0.037           0.023           0.999       7.133e-02          0.1965
 239       1.097e+00      -2.271e-01       2.415e-02           0.024           0.015           1.000       7.817e-02          0.2074
 240       9.238e-01      -2.271e-01       2.778e-02           0.011           0.007           1.000       8.048e-02          0.2143
 241       7.479e-01      -2.271e-01       2.901e-02          -0.006          -0.004           1.000       7.814e-02          0.2160
 242       5.797e-01      -2.271e-01       2.700e-02          -0.033          -0.021           0.999       7.131e-02          0.1683
 243       4.288e-01      -2.271e-01       2.127e-02          -0.057          -0.036           0.998       6.038e-02          0.0836
 244       3.042e-01      -2.271e-01       1.363e-02          -0.077          -0.049           0.996       4.591e-02         -0.0394
 245       2.130e-01      -2.271e-01       6.383e-03          -0.090          -0.058           0.994       2.870e-02         -0.2403
 246       1.605e-01      -2.271e-01       1.571e-03          -0.097          -0.062           0.993       9.766e-03         -0.7586
Strip 20
 247       1.609e+00       2.271e-01       3.508e-04           0.066          -0.042           0.997       9.730e-03          0.0620
 248       1.577e+00       2.271e-01       2.388e-03           0.063          -0.040           0.997       2.862e-02          0.1037
 249       1.505e+00       2.271e-01       6.763e-03           0.056          -0.036           0.998       4.582e-02          0.1436
 250       1.397e+00       2.271e-01       1.261e-02           0.048          -0.030           0.998       6.033e-02          0.1750
 251       1.258e+00       2.271e-01       1.878e-02           0.037          -0.023           0.999       7.133e-02          0.1965
 252       1.097e+00       2.271e-01       2.415e-02           0.024          -0.015           1.000       7.817e-02          0.2074
 253       9.238e-01       2.271e-01       2.778e-02           0.011          -0.007           1.000       8.048e-02          0.2143
 254       7.479e-01       2.271e-01       2.901e-02          -0.006           0.004           1.000       7.814e-02          0.2160
 255       5.797e-01       2.271e-01       2.700e-02          -0.033           0.021           0.999       7.131e-02          0.1683
 256       4.288e-01       2.271e-01       2.127e-02          -0.057           0.036           0.998       6.038e-02          0.0836
 257       3.042e-01       2.271e-01       1.363e-02          -0.077           0.049           0.996       4.591e-02         -0.0394
 258       2.130e-01       2.271e-01       6.383e-03          -0.090           0.058           0.994       2.870e-02         -0.2403
 259       1.605e-01       2.271e-01       1.571e-03          -0.097           0.062           0.993       9.766e-03         -0.7586
Strip 21
 260       1.897e+00       6.797e-01       3.508e-04           0.066          -0.042           0.997       9.663e-03          0.0590
 261       1.865e+00       6.797e-01       2.388e-03           0.063          -0.040           0.997       2.842e-02          0.0985
 262       1.793e+00       6.797e-01       6.763e-03           0.056          -0.036           0.998       4.551e-02          0.1368
 263       1.685e+00       6.797e-01       1.261e-02           0.048          -0.030           0.998       5.992e-02          0.1679
 264       1.546e+00       6.797e-01       1.878e-02           0.037          -0.023           0.999       7.084e-02          0.1913
 265       1.385e+00       6.797e-01       2.415e-02           0.024          -0.015           1.000       7.764e-02          0.2060
 266       1.212e+00       6.797e-01       2.778e-02           0.011          -0.007           1.000       7.993e-02          0.2182
 267       1.036e+00       6.797e-01       2.901e-02          -0.006           0.004           1.000       7.761e-02          0.2257
 268       8.677e-01       6.797e-01       2.700e-02          -0.033           0.021           0.999       7.082e-02          0.1837
 269       7.169e-01       6.797e-01       2.127e-02          -0.057           0.036           0.998       5.996e-02          0.1040
 270       5.922e-01       6.797e-01       1.363e-02          -0.077           0.049           0.996       4.559e-02         -0.0135
 271       5.010e-01       6.797e-01       6.383e-03          -0.090           0.058           0.994       2.851e-02         -0.2029
 272       4.486e-01       6.797e-01       1.571e-03          -0.097           0.062           0.993       9.699e-03         -0.6752
Strip 22
 273       2.182e+00       1.128e+00       3.508e-04           0.066          -0.042           0.997       9.531e-03          0.0585
 274       2.151e+00       1.128e+00       2.388e-03           0.063          -0.040           0.997       2.803e-02          0.0978
 275       2.078e+00       1.128e+00       6.763e-03           0.056          -0.036           0.998       4.488e-02          0.1358
 276       1.970e+00       1.128e+00       1.261e-02           0.048          -0.030           0.998       5.910e-02          0.1669
 277       1.831e+00       1.128e+00       1.878e-02           0.037          -0.023           0.999       6.987e-02          0.1906
 278       1.670e+00       1.128e+00       2.415e-02           0.024          -0.015           1.000       7.657e-02          0.2063
 279       1.497e+00       1.128e+00       2.778e-02           0.011          -0.007           1.000       7.884e-02          0.2201
 280       1.321e+00       1.128e+00       2.901e-02          -0.006           0.004           1.000       7.654e-02          0.2299
 281       1.153e+00       1.128e+00       2.700e-02          -0.033           0.021           0.999       6.985e-02          0.1906
 282       1.002e+00       1.128e+00       2.127e-02          -0.057           0.036           0.998       5.914e-02          0.1143
 283       8.773e-01       1.128e+00       1.363e-02          -0.077           0.049           0.996       4.497e-02          0.0017
 284       7.861e-01       1.128e+00       6.383e-03          -0.090           0.058           0.994       2.812e-02         -0.1777
 285       7.337e-01       1.128e+00       1.571e-03          -0.097           0.062           0.993       9.566e-03         -0.6147
Strip 23
 286       2.462e+00       1.568e+00       3.508e-04           0.066          -0.042           0.997       9.333e-03          0.0585
 287       2.431e+00       1.568e+00       2.388e-03           0.063          -0.040           0.997       2.745e-02          0.0977
 288       2.358e+00       1.568e+00       6.763e-03           0.056          -0.036           0.998       4.395e-02          0.1358
 289       2.250e+00       1.568e+00       1.261e-02           0.048          -0.030           0.998       5.787e-02          0.1670
 290       2.111e+00       1.568e+00       1.878e-02           0.037          -0.023           0.999       6.842e-02          0.1909
 291       1.950e+00       1.568e+00       2.415e-02           0.024          -0.015           1.000       7.499e-02          0.2071
 292       1.777e+00       1.568e+00       2.778e-02           0.011          -0.007           1.000       7.720e-02          0.2216
 293       1.601e+00       1.568e+00       2.901e-02          -0.006           0.004           1.000       7.496e-02          0.2325
 294       1.433e+00       1.568e+00       2.700e-02          -0.033           0.021           0.999       6.841e-02          0.1947
 295       1.282e+00       1.568e+00       2.127e-02          -0.057           0.036           0.998       5.792e-02          0.1204
 296       1.158e+00       1.568e+00       1.363e-02          -0.077           0.049           0.996       4.404e-02          0.0109
 297       1.066e+00       1.568e+00       6.383e-03          -0.090           0.058           0.994       2.753e-02         -0.1620
 298       1.014e+00       1.568e+00       1.571e-03          -0.097           0.062           0.993       9.368e-03         -0.5768
Strip 24
 299       2.736e+00       1.998e+00       3.508e-04           0.066          -0.042           0.997       9.072e-03          0.0585
 300       2.704e+00       1.998e+00       2.388e-03           0.063          -0.040           0.997       2.668e-02          0.0977
 301       2.632e+00       1.998e+00       6.763e-03           0.056          -0.036           0.998       4.272e-02          0.1358
 302       2.523e+00       1.998e+00       1.261e-02           0.048          -0.030           0.998       5.625e-02          0.1671
 303       2.384e+00       1.998e+00       1.878e-02           0.037          -0.023           0.999       6.650e-02          0.1913
 304       2.224e+00       1.998e+00       2.415e-02           0.024          -0.015           1.000       7.289e-02          0.2077
 305       2.050e+00       1.998e+00       2.778e-02           0.011          -0.007           1.000       7.504e-02          0.2227
 306       1.875e+00       1.998e+00       2.901e-02          -0.006           0.004           1.000       7.286e-02          0.2342
 307       1.706e+00       1.998e+00       2.700e-02          -0.033           0.021           0.999       6.649e-02          0.1973
 308       1.556e+00       1.998e+00       2.127e-02          -0.057           0.036           0.998       5.629e-02          0.1242
 309       1.431e+00       1.998e+00       1.363e-02          -0.077           0.049           0.996       4.280e-02          0.0167
 310       1.340e+00       1.998e+00       6.383e-03          -0.090           0.058           0.994       2.676e-02         -0.1521
 311       1.287e+00       1.998e+00       1.571e-03          -0.097           0.062           0.993       9.105e-03         -0.5527
Strip 25
 312       3.001e+00       2.414e+00       3.508e-04           0.066          -0.042           0.997       8.749e-03          0.0584
 313       2.969e+00       2.414e+00       2.388e-03           0.063          -0.040           0.997       2.573e-02          0.0976
 314       2.897e+00       2.414e+00       6.763e-03           0.056          -0.036           0.998       4.120e-02          0.1357
 315       2.788e+00       2.414e+00       1.261e-02           0.048          -0.030           0.998       5.425e-02          0.1671
 316       2.649e+00       2.414e+00       1.878e-02           0.037          -0.023           0.999       6.413e-02          0.1913
 317       2.488e+00       2.414e+00       2.415e-02           0.024          -0.015           1.000       7.029e-02          0.2080
 318       2.315e+00       2.414e+00       2.778e-02           0.011          -0.007           1.000       7.237e-02          0.2233
 319       2.139e+00       2.414e+00       2.901e-02          -0.006           0.004           1.000       7.026e-02          0.2352
 320       1.971e+00       2.414e+00       2.700e-02          -0.033           0.021           0.999       6.412e-02          0.1988
 321       1.820e+00       2.414e+00       2.127e-02          -0.057           0.036           0.998       5.429e-02          0.1266
 322       1.696e+00       2.414e+00       1.363e-02          -0.077           0.049           0.996       4.128e-02          0.0203
 323       1.604e+00       2.414e+00       6.383e-03          -0.090           0.058           0.994       2.581e-02         -0.1458
 324       1.552e+00       2.414e+00       1.571e-03          -0.097           0.062           0.993       8.781e-03         -0.5375
Strip 26
 325       3.255e+00       2.813e+00       3.508e-04           0.066          -0.042           0.997       8.366e-03          0.0583
 326       3.223e+00       2.813e+00       2.388e-03           0.063          -0.040           0.997       2.460e-02          0.0974
 327       3.151e+00       2.813e+00       6.763e-03           0.056          -0.036           0.998       3.939e-02          0.1355
 328       3.042e+00       2.813e+00       1.261e-02           0.048          -0.030           0.998       5.187e-02          0.1668
 329       2.903e+00       2.813e+00       1.878e-02           0.037          -0.023           0.999       6.133e-02          0.1911
 330       2.743e+00       2.813e+00       2.415e-02           0.024          -0.015           1.000       6.721e-02          0.2078
 331       2.569e+00       2.813e+00       2.778e-02           0.011          -0.007           1.000       6.920e-02          0.2233
 332       2.393e+00       2.813e+00       2.901e-02          -0.006           0.004           1.000       6.718e-02          0.2355
 333       2.225e+00       2.813e+00       2.700e-02          -0.033           0.021           0.999       6.131e-02          0.1995
 334       2.074e+00       2.813e+00       2.127e-02          -0.057           0.036           0.998       5.191e-02          0.1278
 335       1.950e+00       2.813e+00       1.363e-02          -0.077           0.049           0.996       3.947e-02          0.0223
 336       1.859e+00       2.813e+00       6.383e-03          -0.090           0.058           0.994       2.468e-02         -0.1423
 337       1.806e+00       2.813e+00       1.571e-03          -0.097           0.062           0.993       8.396e-03         -0.5287
Strip 27
 338       3.497e+00       3.193e+00       3.508e-04           0.066          -0.042           0.997       7.925e-03          0.0580
 339       3.465e+00       3.193e+00       2.388e-03           0.063          -0.040           0.997       2.331e-02          0.0970
 340       3.393e+00       3.193e+00       6.763e-03           0.056          -0.036           0.998       3.732e-02          0.1349
 341       3.284e+00       3.193e+00       1.261e-02           0.048          -0.030           0.998       4.914e-02          0.1661
 342       3.145e+00       3.193e+00       1.878e-02           0.037          -0.023           0.999       5.810e-02          0.1904
 343       2.985e+00       3.193e+00       2.415e-02           0.024          -0.015           1.000       6.367e-02          0.2072
 344       2.811e+00       3.193e+00       2.778e-02           0.011          -0.007           1.000       6.556e-02          0.2228
 345       2.635e+00       3.193e+00       2.901e-02          -0.006           0.004           1.000       6.365e-02          0.2352
 346       2.467e+00       3.193e+00       2.700e-02          -0.033           0.021           0.999       5.809e-02          0.1995
 347       2.316e+00       3.193e+00       2.127e-02          -0.057           0.036           0.998       4.918e-02          0.1281
 348       2.192e+00       3.193e+00       1.363e-02          -0.077           0.049           0.996       3.739e-02          0.0230
 349       2.101e+00       3.193e+00       6.383e-03          -0.090           0.058           0.994       2.338e-02         -0.1409
 350       2.048e+00       3.193e+00       1.571e-03          -0.097           0.062           0.993       7.955e-03         -0.5251
Strip 28
 351       3.725e+00       3.552e+00       3.508e-04           0.066          -0.042           0.997       7.431e-03          0.0576
 352       3.693e+00       3.552e+00       2.388e-03           0.063          -0.040           0.997       2.186e-02          0.0963
 353       3.621e+00       3.552e+00       6.763e-03           0.056          -0.036           0.998       3.499e-02          0.1340
 354       3.512e+00       3.552e+00       1.261e-02           0.048          -0.030           0.998       4.608e-02          0.1650
 355       3.373e+00       3.552e+00       1.878e-02           0.037          -0.023           0.999       5.447e-02          0.1892
 356       3.213e+00       3.552e+00       2.415e-02           0.024          -0.015           1.000       5.970e-02          0.2060
 357       3.039e+00       3.552e+00       2.778e-02           0.011          -0.007           1.000       6.147e-02          0.2217
 358       2.864e+00       3.552e+00       2.901e-02          -0.006           0.004           1.000       5.968e-02          0.2341
 359       2.695e+00       3.552e+00       2.700e-02          -0.033           0.021           0.999       5.446e-02          0.1986
 360       2.544e+00       3.552e+00       2.127e-02          -0.057           0.036           0.998       4.611e-02          0.1274
 361       2.420e+00       3.552e+00       1.363e-02          -0.077           0.049           0.996       3.506e-02          0.0225
 362       2.329e+00       3.552e+00       6.383e-03          -0.090           0.058           0.994       2.192e-02         -0.1414
 363       2.276e+00       3.552e+00       1.571e-03          -0.097           0.062           0.993       7.458e-03         -0.5260
Strip 29
 364       3.937e+00       3.886e+00       3.508e-04           0.066          -0.042           0.997       6.886e-03          0.0570
 365       3.906e+00       3.886e+00       2.388e-03           0.063          -0.040           0.997       2.025e-02          0.0953
 366       3.833e+00       3.886e+00       6.763e-03           0.056          -0.036           0.998       3.243e-02          0.1325
 367       3.725e+00       3.886e+00       1.261e-02           0.048          -0.030           0.998       4.270e-02          0.1632
 368       3.586e+00       3.886e+00       1.878e-02           0.037          -0.023           0.999       5.048e-02          0.1872
 369       3.425e+00       3.886e+00       2.415e-02           0.024          -0.015           1.000       5.532e-02          0.2040
 370       3.252e+00       3.886e+00       2.778e-02           0.011          -0.007           1.000       5.696e-02          0.2198
 371       3.076e+00       3.886e+00       2.901e-02          -0.006           0.004           1.000       5.530e-02          0.2323
 372       2.908e+00       3.886e+00       2.700e-02          -0.033           0.021           0.999       5.047e-02          0.1969
 373       2.757e+00       3.886e+00       2.127e-02          -0.057           0.036           0.998       4.273e-02          0.1258
 374       2.632e+00       3.886e+00       1.363e-02          -0.077           0.049           0.996       3.249e-02          0.0207
 375       2.541e+00       3.886e+00       6.383e-03          -0.090           0.058           0.994       2.031e-02         -0.1437
 376       2.489e+00       3.886e+00       1.571e-03          -0.097           0.062           0.993       6.911e-03         -0.5311
Strip 30
 377       4.133e+00       4.193e+00       3.508e-04           0.066          -0.042           0.997       6.294e-03          0.0560
 378       4.101e+00       4.193e+00       2.388e-03           0.063          -0.040           0.997       1.851e-02          0.0935
 379       4.029e+00       4.193e+00       6.763e-03           0.056          -0.036           0.998       2.964e-02          0.1301
 380       3.921e+00       4.193e+00       1.261e-02           0.048          -0.030           0.998       3.903e-02          0.1604
 381       3.782e+00       4.193e+00       1.878e-02           0.037          -0.023           0.999       4.614e-02          0.1842
 382       3.621e+00       4.193e+00       2.415e-02           0.024          -0.015           1.000       5.056e-02          0.2009
 383       3.448e+00       4.193e+00       2.778e-02           0.011          -0.007           1.000       5.206e-02          0.2168
 384       3.272e+00       4.193e+00       2.901e-02          -0.006           0.004           1.000       5.055e-02          0.2296
 385       3.104e+00       4.193e+00       2.700e-02          -0.033           0.021           0.999       4.613e-02          0.1943
 386       2.953e+00       4.193e+00       2.127e-02          -0.057           0.036           0.998       3.905e-02          0.1232
 387       2.828e+00       4.193e+00       1.363e-02          -0.077           0.049           0.996       2.969e-02          0.0178
 388       2.737e+00       4.193e+00       6.383e-03          -0.090           0.058           0.994       1.857e-02         -0.1478
 389       2.685e+00       4.193e+00       1.571e-03          -0.097           0.062           0.993       6.317e-03         -0.5404
Strip 31
 390       4.311e+00       4.472e+00       3.508e-04           0.066          -0.042           0.997       5.659e-03          0.0543
 391       4.279e+00       4.472e+00       2.388e-03           0.063          -0.040           0.997       1.664e-02          0.0908
 392       4.207e+00       4.472e+00       6.763e-03           0.056          -0.036           0.998       2.665e-02          0.1263
 393       4.098e+00       4.472e+00       1.261e-02           0.048          -0.030           0.998       3.509e-02          0.1559
 394       3.959e+00       4.472e+00       1.878e-02           0.037          -0.023           0.999       4.148e-02          0.1794
 395       3.799e+00       4.472e+00       2.415e-02           0.024          -0.015           1.000       4.546e-02          0.1962
 396       3.625e+00       4.472e+00       2.778e-02           0.011          -0.007           1.000       4.681e-02          0.2125
 397       3.449e+00       4.472e+00       2.901e-02          -0.006           0.004           1.000       4.544e-02          0.2256
 398       3.281e+00       4.472e+00       2.700e-02          -0.033           0.021           0.999       4.147e-02          0.1906
 399       3.130e+00       4.472e+00       2.127e-02          -0.057           0.036           0.998       3.511e-02          0.1195
 400       3.006e+00       4.472e+00       1.363e-02          -0.077           0.049           0.996       2.670e-02          0.0138
 401       2.915e+00       4.472e+00       6.383e-03          -0.090           0.058           0.994       1.669e-02         -0.1536
 402       2.862e+00       4.472e+00       1.571e-03          -0.097           0.062           0.993       5.680e-03         -0.5535
Strip 32
 403       4.469e+00       4.721e+00       3.508e-04           0.066          -0.042           0.997       4.985e-03          0.0518
 404       4.437e+00       4.721e+00       2.388e-03           0.063          -0.040           0.997       1.466e-02          0.0864
 405       4.365e+00       4.721e+00       6.763e-03           0.056          -0.036           0.998       2.347e-02          0.1203
 406       4.256e+00       4.721e+00       1.261e-02           0.048          -0.030           0.998       3.091e-02          0.1487
 407       4.117e+00       4.721e+00       1.878e-02           0.037          -0.023           0.999       3.654e-02          0.1718
 408       3.957e+00       4.721e+00       2.415e-02           0.024          -0.015           1.000       4.005e-02          0.1890
 409       3.783e+00       4.721e+00       2.778e-02           0.011          -0.007           1.000       4.123e-02          0.2060
 410       3.608e+00       4.721e+00       2.901e-02          -0.006           0.004           1.000       4.003e-02          0.2201
 411       3.439e+00       4.721e+00       2.700e-02          -0.033           0.021           0.999       3.653e-02          0.1858
 412       3.288e+00       4.721e+00       2.127e-02          -0.057           0.036           0.998       3.093e-02          0.1149
 413       3.164e+00       4.721e+00       1.363e-02          -0.077           0.049           0.996       2.352e-02          0.0087
 414       3.073e+00       4.721e+00       6.383e-03          -0.090           0.058           0.994       1.471e-02         -0.1609
 415       3.020e+00       4.721e+00       1.571e-03          -0.097           0.062           0.993       5.003e-03         -0.5698
Strip 33
 416       4.606e+00       4.937e+00       3.508e-04           0.066          -0.042           0.997       4.277e-03          0.0481
 417       4.575e+00       4.937e+00       2.388e-03           0.063          -0.040           0.997       1.258e-02          0.0801
 418       4.502e+00       4.937e+00       6.763e-03           0.056          -0.036           0.998       2.014e-02          0.1114
 419       4.394e+00       4.937e+00       1.261e-02           0.048          -0.030           0.998       2.652e-02          0.1379
 420       4.255e+00       4.937e+00       1.878e-02           0.037          -0.023           0.999       3.135e-02          0.1600
 421       4.094e+00       4.937e+00       2.415e-02           0.024          -0.015           1.000       3.436e-02          0.1775
 422       3.921e+00       4.937e+00       2.778e-02           0.011          -0.007           1.000       3.538e-02          0.1961
 423       3.745e+00       4.937e+00       2.901e-02          -0.006           0.004           1.000       3.435e-02          0.2123
 424       3.577e+00       4.937e+00       2.700e-02          -0.033           0.021           0.999       3.135e-02          0.1797
 425       3.426e+00       4.937e+00       2.127e-02          -0.057           0.036           0.998       2.654e-02          0.1096
 426       3.301e+00       4.937e+00       1.363e-02          -0.077           0.049           0.996       2.018e-02          0.0030
 427       3.210e+00       4.937e+00       6.383e-03          -0.090           0.058           0.994       1.262e-02         -0.1688
 428       3.158e+00       4.937e+00       1.571e-03          -0.097           0.062           0.993       4.293e-03         -0.5878
Strip 34
 429       4.722e+00       5.119e+00       3.508e-04           0.066          -0.042           0.997       3.540e-03          0.0433
 430       4.691e+00       5.119e+00       2.388e-03           0.063          -0.040           0.997       1.041e-02          0.0718
 431       4.618e+00       5.119e+00       6.763e-03           0.056          -0.036           0.998       1.667e-02          0.0995
 432       4.510e+00       5.119e+00       1.261e-02           0.048          -0.030           0.998       2.195e-02          0.1229
 433       4.371e+00       5.119e+00       1.878e-02           0.037          -0.023           0.999       2.595e-02          0.1430
 434       4.210e+00       5.119e+00       2.415e-02           0.024          -0.015           1.000       2.844e-02          0.1600
 435       4.037e+00       5.119e+00       2.778e-02           0.011          -0.007           1.000       2.928e-02          0.1804
 436       3.861e+00       5.119e+00       2.901e-02          -0.006           0.004           1.000       2.843e-02          0.2005
 437       3.693e+00       5.119e+00       2.700e-02          -0.033           0.021           0.999       2.594e-02          0.1721
 438       3.542e+00       5.119e+00       2.127e-02          -0.057           0.036           0.998       2.197e-02          0.1043
 439       3.417e+00       5.119e+00       1.363e-02          -0.077           0.049           0.996       1.670e-02         -0.0021
 440       3.326e+00       5.119e+00       6.383e-03          -0.090           0.058           0.994       1.044e-02         -0.1761
 441       3.274e+00       5.119e+00       1.571e-03          -0.097           0.062           0.993       3.553e-03         -0.6044
Strip 35
 442       4.816e+00       5.267e+00       3.508e-04           0.066          -0.042           0.997       2.779e-03          0.0374
 443       4.785e+00       5.267e+00       2.388e-03           0.063          -0.040           0.997       8.172e-03          0.0616
 444       4.712e+00       5.267e+00       6.763e-03           0.056          -0.036           0.998       1.308e-02          0.0848
 445       4.604e+00       5.267e+00       1.261e-02           0.048          -0.030           0.998       1.723e-02          0.1043
 446       4.465e+00       5.267e+00       1.878e-02           0.037          -0.023           0.999       2.037e-02          0.1211
 447       4.304e+00       5.267e+00       2.415e-02           0.024          -0.015           1.000       2.232e-02          0.1359
 448       4.131e+00       5.267e+00       2.778e-02           0.011          -0.007           1.000       2.298e-02          0.1565
 449       3.955e+00       5.267e+00       2.901e-02          -0.006           0.004           1.000       2.232e-02          0.1810
 450       3.787e+00       5.267e+00       2.700e-02          -0.033           0.021           0.999       2.037e-02          0.1609
 451       3.636e+00       5.267e+00       2.127e-02          -0.057           0.036           0.998       1.724e-02          0.1003
 452       3.511e+00       5.267e+00       1.363e-02          -0.077           0.049           0.996       1.311e-02         -0.0041
 453       3.420e+00       5.267e+00       6.383e-03          -0.090           0.058           0.994       8.197e-03         -0.1795
 454       3.368e+00       5.267e+00       1.571e-03          -0.097           0.062           0.993       2.789e-03         -0.6136
Strip 36
 455       4.887e+00       5.378e+00       3.508e-04           0.066          -0.042           0.997       1.998e-03          0.0306
 456       4.856e+00       5.378e+00       2.388e-03           0.063          -0.040           0.997       5.877e-03          0.0497
 457       4.783e+00       5.378e+00       6.763e-03           0.056          -0.036           0.998       9.411e-03          0.0679
 458       4.675e+00       5.378e+00       1.261e-02           0.048          -0.030           0.998       1.239e-02          0.0827
 459       4.536e+00       5.378e+00       1.878e-02           0.037          -0.023           0.999       1.465e-02          0.0955
 460       4.375e+00       5.378e+00       2.415e-02           0.024          -0.015           1.000       1.606e-02          0.1066
 461       4.202e+00       5.378e+00       2.778e-02           0.011          -0.007           1.000       1.653e-02          0.1244
 462       4.026e+00       5.378e+00       2.901e-02          -0.006           0.004           1.000       1.605e-02          0.1502
 463       3.858e+00       5.378e+00       2.700e-02          -0.033           0.021           0.999       1.465e-02          0.1398
 464       3.707e+00       5.378e+00       2.127e-02          -0.057           0.036           0.998       1.240e-02          0.0957
 465       3.582e+00       5.378e+00       1.363e-02          -0.077           0.049           0.996       9.429e-03          0.0026
 466       3.491e+00       5.378e+00       6.383e-03          -0.090           0.058           0.994       5.895e-03         -0.1728
 467       3.439e+00       5.378e+00       1.571e-03          -0.097           0.062           0.993       2.006e-03         -0.6051
Strip 37
 468       4.935e+00       5.453e+00       3.508e-04           0.066          -0.042           0.997       1.205e-03          0.0227
 469       4.903e+00       5.453e+00       2.388e-03           0.063          -0.040           0.997       3.543e-03          0.0365
 470       4.831e+00       5.453e+00       6.763e-03           0.056          -0.036           0.998       5.672e-03          0.0491
 471       4.722e+00       5.453e+00       1.261e-02           0.048          -0.030           0.998       7.469e-03          0.0590
 472       4.583e+00       5.453e+00       1.878e-02           0.037          -0.023           0.999       8.830e-03          0.0675
 473       4.423e+00       5.453e+00       2.415e-02           0.024          -0.015           1.000       9.677e-03          0.0747
 474       4.249e+00       5.453e+00       2.778e-02           0.011          -0.007           1.000       9.964e-03          0.0874
 475       4.074e+00       5.453e+00       2.901e-02          -0.006           0.004           1.000       9.674e-03          0.1091
 476       3.905e+00       5.453e+00       2.700e-02          -0.033           0.021           0.999       8.828e-03          0.1047
 477       3.754e+00       5.453e+00       2.127e-02          -0.057           0.036           0.998       7.475e-03          0.0790
 478       3.630e+00       5.453e+00       1.363e-02          -0.077           0.049           0.996       5.683e-03          0.0189
 479       3.539e+00       5.453e+00       6.383e-03          -0.090           0.058           0.994       3.553e-03         -0.1394
 480       3.486e+00       5.453e+00       1.571e-03          -0.097           0.062           0.993       1.209e-03         -0.5612
Strip 38
 481       4.959e+00       5.491e+00       3.508e-04           0.066          -0.042           0.997       4.024e-04          0.0158
 482       4.927e+00       5.491e+00       2.388e-03           0.063          -0.040           0.997       1.184e-03          0.0225
 483       4.855e+00       5.491e+00       6.763e-03           0.056          -0.036           0.998       1.895e-03          0.0293
 484       4.746e+00       5.491e+00       1.261e-02           0.048          -0.030           0.998       2.495e-03          0.0347
 485       4.607e+00       5.491e+00       1.878e-02           0.037          -0.023           0.999       2.950e-03          0.0395
 486       4.447e+00       5.491e+00       2.415e-02           0.024          -0.015           1.000       3.233e-03          0.0435
 487       4.273e+00       5.491e+00       2.778e-02           0.011          -0.007           1.000       3.329e-03          0.0510
 488       4.097e+00       5.491e+00       2.901e-02          -0.006           0.004           1.000       3.232e-03          0.0645
 489       3.929e+00       5.491e+00       2.700e-02          -0.033           0.021           0.999       2.949e-03          0.0625
 490       3.778e+00       5.491e+00       2.127e-02          -0.057           0.036           0.998       2.497e-03          0.0487
 491       3.654e+00       5.491e+00       1.363e-02          -0.077           0.049           0.996       1.899e-03          0.0182
 492       3.563e+00       5.491e+00       6.383e-03          -0.090           0.058           0.994       1.187e-03         -0.0627
 493       3.510e+00       5.491e+00       1.571e-03          -0.097           0.062           0.993       4.039e-04         -0.4425










