xflr5 v6.47

Flying_wing_7
T1-55.0 m/s-VLM2-Inviscid
QInf  =   55.000000 m/s
Alpha =    0.000000
Beta  =    0.000°
Phi   =    0.000°
Ctrl  =    0.000
CL    =    0.142309
Cy    =    0.000000
Cd    =    0.000976     ICd   =    0.000976     PCd   =    0.000000
Cl   = -2.26313e-17
Cm   =  -0.0170181
ICn   =   -0.000000     PCn   =   -0.000000 
XCP   =    2.295429     YCP   =    0.000000     ZCP   =    0.025381  
XNP   =    0.000000
Bending = 5187.823899

Main Wing
  y-span        Chord      Ai         Cl        PCd          ICd        CmGeom    CmAirf@chord/4    XTrtop    XTrBot      XCP       BM
   -5.4906     1.4700    -1.585    0.032719    0.000000    0.000899   -0.039084   -0.011619     0.0000    0.0000    0.6076    0.0000
   -5.4531     1.4700    -1.487    0.055328    0.000000    0.001435   -0.065449   -0.019484     0.0000    0.0000    0.6024    0.0629
   -5.3783     1.4700    -1.356    0.077548    0.000000    0.001835   -0.089152   -0.026842     0.0000    0.0000    0.5962    0.8225
   -5.2668     1.4700    -1.206    0.096900    0.000000    0.002039   -0.106869   -0.033006     0.0000    0.0000    0.5907    4.1554
   -5.1194     1.4700    -1.048    0.112791    0.000000    0.002063   -0.117622   -0.037813     0.0000    0.0000    0.5853   13.6194
   -4.9369     1.4700    -0.894    0.125213    0.000000    0.001953   -0.121425   -0.041301     0.0000    0.0000    0.5799   34.6020
   -4.7208     1.4700    -0.754    0.134546    0.000000    0.001770   -0.118966   -0.043659     0.0000    0.0000    0.5745   74.2023
   -4.4723     1.4700    -0.635    0.141372    0.000000    0.001567   -0.111270   -0.045174     0.0000    0.0000    0.5695   140.9227
   -4.1934     1.4700    -0.540    0.146274    0.000000    0.001378   -0.099375   -0.046128     0.0000    0.0000    0.5654   244.2617
   -3.8858     1.4700    -0.466    0.149716    0.000000    0.001217   -0.084149   -0.046737     0.0000    0.0000    0.5622   394.2676
   -3.5516     1.4700    -0.408    0.152021    0.000000    0.001084   -0.066277   -0.047139     0.0000    0.0000    0.5601   601.0781
   -3.1932     1.4700    -0.364    0.153392    0.000000    0.000974   -0.046327   -0.047416     0.0000    0.0000    0.5591   874.4546
   -2.8130     1.4700    -0.329    0.153948    0.000000    0.000884   -0.024805   -0.047617     0.0000    0.0000    0.5593   1223.3205
   -2.4135     1.4700    -0.301    0.153733    0.000000    0.000808   -0.002212   -0.047779     0.0000    0.0000    0.5608   1655.3140
   -1.9976     1.4700    -0.277    0.152716    0.000000    0.000740    0.020903   -0.047932     0.0000    0.0000    0.5639   2176.3614
   -1.5680     1.4700    -0.255    0.150776    0.000000    0.000671    0.043873   -0.048121     0.0000    0.0000    0.5692   2790.2772
   -1.1277     1.4700    -0.227    0.147663    0.000000    0.000584    0.065775   -0.048443     0.0000    0.0000    0.5781   3498.3866
   -0.6797     1.4700    -0.173    0.142926    0.000000    0.000432    0.085146   -0.049167     0.0000    0.0000    0.5940   4299.1583
   -0.2271     1.4700    -0.000    0.135998    0.000000    0.000001    0.099525   -0.051119     0.0000    0.0000    0.6259   5187.8239
    0.2271     1.4700    -0.000    0.135998    0.000000    0.000001    0.099525   -0.051119     0.0000    0.0000    0.6259   5187.8239
    0.6797     1.4700    -0.173    0.142926    0.000000    0.000432    0.085146   -0.049167     0.0000    0.0000    0.5940   4299.1583
    1.1277     1.4700    -0.227    0.147663    0.000000    0.000584    0.065775   -0.048443     0.0000    0.0000    0.5781   3498.3866
    1.5680     1.4700    -0.255    0.150776    0.000000    0.000671    0.043873   -0.048121     0.0000    0.0000    0.5692   2790.2772
    1.9976     1.4700    -0.277    0.152716    0.000000    0.000740    0.020903   -0.047932     0.0000    0.0000    0.5639   2176.3614
    2.4135     1.4700    -0.301    0.153733    0.000000    0.000808   -0.002212   -0.047779     0.0000    0.0000    0.5608   1655.3140
    2.8130     1.4700    -0.329    0.153948    0.000000    0.000884   -0.024805   -0.047617     0.0000    0.0000    0.5593   1223.3205
    3.1932     1.4700    -0.364    0.153392    0.000000    0.000974   -0.046327   -0.047416     0.0000    0.0000    0.5591   874.4546
    3.5516     1.4700    -0.408    0.152021    0.000000    0.001084   -0.066277   -0.047139     0.0000    0.0000    0.5601   601.0781
    3.8858     1.4700    -0.466    0.149716    0.000000    0.001217   -0.084149   -0.046737     0.0000    0.0000    0.5622   394.2676
    4.1934     1.4700    -0.540    0.146274    0.000000    0.001378   -0.099375   -0.046128     0.0000    0.0000    0.5654   244.2617
    4.4723     1.4700    -0.635    0.141372    0.000000    0.001567   -0.111270   -0.045174     0.0000    0.0000    0.5695   140.9227
    4.7208     1.4700    -0.754    0.134546    0.000000    0.001770   -0.118966   -0.043659     0.0000    0.0000    0.5745   74.2023
    4.9369     1.4700    -0.894    0.125213    0.000000    0.001953   -0.121425   -0.041301     0.0000    0.0000    0.5799   34.6020
    5.1194     1.4700    -1.048    0.112791    0.000000    0.002063   -0.117622   -0.037813     0.0000    0.0000    0.5853   13.6194
    5.2668     1.4700    -1.206    0.096900    0.000000    0.002039   -0.106869   -0.033006     0.0000    0.0000    0.5907    4.1554
    5.3783     1.4700    -1.356    0.077548    0.000000    0.001835   -0.089152   -0.026842     0.0000    0.0000    0.5962    0.8225
    5.4531     1.4700    -1.487    0.055328    0.000000    0.001435   -0.065449   -0.019484     0.0000    0.0000    0.6024    0.0629
    5.4906     1.4700    -1.585    0.032719    0.000000    0.000899   -0.039084   -0.011619     0.0000    0.0000    0.6076    0.0000


Main Wing Cp Coefficients
 Panel     CtrlPt.x        CtrlPt.y        CtrlPt.z       Nx      Ny       Nz        Area       Cp
Main WingCp Coefficients
Strip 1
   0       4.460e+00      -5.491e+00       3.508e-04           0.066           0.036           0.997       4.023e-04          0.0167
   1       4.428e+00      -5.491e+00       2.388e-03           0.063           0.034           0.997       1.183e-03          0.0237
   2       4.356e+00      -5.491e+00       6.763e-03           0.056           0.031           0.998       1.895e-03          0.0306
   3       4.247e+00      -5.491e+00       1.261e-02           0.048           0.026           0.999       2.495e-03          0.0361
   4       4.108e+00      -5.491e+00       1.878e-02           0.037           0.020           0.999       2.950e-03          0.0408
   5       3.948e+00      -5.491e+00       2.415e-02           0.024           0.013           1.000       3.233e-03          0.0448
   6       3.774e+00      -5.491e+00       2.778e-02           0.011           0.006           1.000       3.329e-03          0.0521
   7       3.598e+00      -5.491e+00       2.901e-02          -0.006          -0.003           1.000       3.232e-03          0.0654
   8       3.430e+00      -5.491e+00       2.700e-02          -0.033          -0.018           0.999       2.949e-03          0.0626
   9       3.279e+00      -5.491e+00       2.127e-02          -0.057          -0.031           0.998       2.497e-03          0.0477
  10       3.155e+00      -5.491e+00       1.363e-02          -0.077          -0.042           0.996       1.898e-03          0.0154
  11       3.063e+00      -5.491e+00       6.383e-03          -0.091          -0.049           0.995       1.187e-03         -0.0688
  12       3.011e+00      -5.491e+00       1.571e-03          -0.097          -0.053           0.994       4.037e-04         -0.4580
Strip 2
  13       4.439e+00      -5.453e+00       3.508e-04           0.066           0.036           0.997       1.204e-03          0.0241
  14       4.407e+00      -5.453e+00       2.388e-03           0.063           0.034           0.997       3.542e-03          0.0385
  15       4.335e+00      -5.453e+00       6.763e-03           0.056           0.031           0.998       5.671e-03          0.0513
  16       4.226e+00      -5.453e+00       1.261e-02           0.048           0.026           0.999       7.468e-03          0.0613
  17       4.088e+00      -5.453e+00       1.878e-02           0.037           0.020           0.999       8.829e-03          0.0697
  18       3.927e+00      -5.453e+00       2.415e-02           0.024           0.013           1.000       9.677e-03          0.0768
  19       3.754e+00      -5.453e+00       2.778e-02           0.011           0.006           1.000       9.964e-03          0.0893
  20       3.578e+00      -5.453e+00       2.901e-02          -0.006          -0.003           1.000       9.674e-03          0.1106
  21       3.410e+00      -5.453e+00       2.700e-02          -0.033          -0.018           0.999       8.828e-03          0.1049
  22       3.259e+00      -5.453e+00       2.127e-02          -0.057          -0.031           0.998       7.473e-03          0.0773
  23       3.134e+00      -5.453e+00       1.363e-02          -0.077          -0.042           0.996       5.681e-03          0.0149
  24       3.043e+00      -5.453e+00       6.383e-03          -0.091          -0.049           0.995       3.552e-03         -0.1482
  25       2.990e+00      -5.453e+00       1.571e-03          -0.097          -0.053           0.994       1.208e-03         -0.5928
Strip 3
  26       4.398e+00      -5.378e+00       3.508e-04           0.066           0.036           0.997       1.998e-03          0.0322
  27       4.367e+00      -5.378e+00       2.388e-03           0.063           0.034           0.997       5.876e-03          0.0522
  28       4.294e+00      -5.378e+00       6.763e-03           0.056           0.031           0.998       9.409e-03          0.0709
  29       4.186e+00      -5.378e+00       1.261e-02           0.048           0.026           0.999       1.239e-02          0.0859
  30       4.047e+00      -5.378e+00       1.878e-02           0.037           0.020           0.999       1.465e-02          0.0985
  31       3.886e+00      -5.378e+00       2.415e-02           0.024           0.013           1.000       1.606e-02          0.1094
  32       3.713e+00      -5.378e+00       2.778e-02           0.011           0.006           1.000       1.653e-02          0.1267
  33       3.537e+00      -5.378e+00       2.901e-02          -0.006          -0.003           1.000       1.605e-02          0.1522
  34       3.369e+00      -5.378e+00       2.700e-02          -0.033          -0.018           0.999       1.465e-02          0.1402
  35       3.218e+00      -5.378e+00       2.127e-02          -0.057          -0.031           0.998       1.240e-02          0.0941
  36       3.093e+00      -5.378e+00       1.363e-02          -0.077          -0.042           0.996       9.426e-03         -0.0019
  37       3.002e+00      -5.378e+00       6.383e-03          -0.091          -0.049           0.995       5.893e-03         -0.1862
  38       2.950e+00      -5.378e+00       1.571e-03          -0.097          -0.053           0.994       2.005e-03         -0.6460
Strip 4
  39       4.337e+00      -5.267e+00       3.508e-04           0.066           0.036           0.997       2.778e-03          0.0391
  40       4.306e+00      -5.267e+00       2.388e-03           0.063           0.034           0.997       8.170e-03          0.0643
  41       4.233e+00      -5.267e+00       6.763e-03           0.056           0.031           0.998       1.308e-02          0.0882
  42       4.125e+00      -5.267e+00       1.261e-02           0.048           0.026           0.999       1.723e-02          0.1080
  43       3.986e+00      -5.267e+00       1.878e-02           0.037           0.020           0.999       2.037e-02          0.1247
  44       3.825e+00      -5.267e+00       2.415e-02           0.024           0.013           1.000       2.232e-02          0.1391
  45       3.652e+00      -5.267e+00       2.778e-02           0.011           0.006           1.000       2.298e-02          0.1593
  46       3.476e+00      -5.267e+00       2.901e-02          -0.006          -0.003           1.000       2.232e-02          0.1836
  47       3.308e+00      -5.267e+00       2.700e-02          -0.033          -0.018           0.999       2.036e-02          0.1622
  48       3.157e+00      -5.267e+00       2.127e-02          -0.057          -0.031           0.998       1.724e-02          0.0994
  49       3.033e+00      -5.267e+00       1.363e-02          -0.077          -0.042           0.996       1.311e-02         -0.0096
  50       2.941e+00      -5.267e+00       6.383e-03          -0.091          -0.049           0.995       8.193e-03         -0.1954
  51       2.889e+00      -5.267e+00       1.571e-03          -0.097          -0.053           0.994       2.787e-03         -0.6593
Strip 5
  52       4.257e+00      -5.119e+00       3.508e-04           0.066           0.036           0.997       3.539e-03          0.0450
  53       4.225e+00      -5.119e+00       2.388e-03           0.063           0.034           0.997       1.041e-02          0.0746
  54       4.153e+00      -5.119e+00       6.763e-03           0.056           0.031           0.998       1.667e-02          0.1031
  55       4.044e+00      -5.119e+00       1.261e-02           0.048           0.026           0.999       2.195e-02          0.1269
  56       3.906e+00      -5.119e+00       1.878e-02           0.037           0.020           0.999       2.595e-02          0.1470
  57       3.745e+00      -5.119e+00       2.415e-02           0.024           0.013           1.000       2.844e-02          0.1636
  58       3.572e+00      -5.119e+00       2.778e-02           0.011           0.006           1.000       2.928e-02          0.1839
  59       3.396e+00      -5.119e+00       2.901e-02          -0.006          -0.003           1.000       2.843e-02          0.2042
  60       3.228e+00      -5.119e+00       2.700e-02          -0.033          -0.018           0.999       2.594e-02          0.1745
  61       3.077e+00      -5.119e+00       2.127e-02          -0.057          -0.031           0.998       2.196e-02          0.1038
  62       2.952e+00      -5.119e+00       1.363e-02          -0.077          -0.042           0.996       1.670e-02         -0.0082
  63       2.861e+00      -5.119e+00       6.383e-03          -0.091          -0.049           0.995       1.044e-02         -0.1927
  64       2.808e+00      -5.119e+00       1.571e-03          -0.097          -0.053           0.994       3.551e-03         -0.6517
Strip 6
  65       4.158e+00      -4.937e+00       3.508e-04           0.066           0.036           0.997       4.276e-03          0.0499
  66       4.126e+00      -4.937e+00       2.388e-03           0.063           0.034           0.997       1.258e-02          0.0829
  67       4.054e+00      -4.937e+00       6.763e-03           0.056           0.031           0.998       2.014e-02          0.1151
  68       3.945e+00      -4.937e+00       1.261e-02           0.048           0.026           0.999       2.652e-02          0.1420
  69       3.806e+00      -4.937e+00       1.878e-02           0.037           0.020           0.999       3.135e-02          0.1643
  70       3.645e+00      -4.937e+00       2.415e-02           0.024           0.013           1.000       3.436e-02          0.1817
  71       3.472e+00      -4.937e+00       2.778e-02           0.011           0.006           1.000       3.538e-02          0.2005
  72       3.296e+00      -4.937e+00       2.901e-02          -0.006          -0.003           1.000       3.435e-02          0.2170
  73       3.128e+00      -4.937e+00       2.700e-02          -0.033          -0.018           0.999       3.134e-02          0.1829
  74       2.977e+00      -4.937e+00       2.127e-02          -0.057          -0.031           0.998       2.654e-02          0.1094
  75       2.853e+00      -4.937e+00       1.363e-02          -0.077          -0.042           0.996       2.017e-02         -0.0029
  76       2.761e+00      -4.937e+00       6.383e-03          -0.091          -0.049           0.995       1.261e-02         -0.1853
  77       2.709e+00      -4.937e+00       1.571e-03          -0.097          -0.053           0.994       4.291e-03         -0.6345
Strip 7
  78       4.040e+00      -4.721e+00       3.508e-04           0.066           0.036           0.997       4.984e-03          0.0536
  79       4.008e+00      -4.721e+00       2.388e-03           0.063           0.034           0.997       1.466e-02          0.0893
  80       3.936e+00      -4.721e+00       6.763e-03           0.056           0.031           0.998       2.347e-02          0.1241
  81       3.827e+00      -4.721e+00       1.261e-02           0.048           0.026           0.999       3.091e-02          0.1531
  82       3.688e+00      -4.721e+00       1.878e-02           0.037           0.020           0.999       3.654e-02          0.1766
  83       3.528e+00      -4.721e+00       2.415e-02           0.024           0.013           1.000       4.005e-02          0.1939
  84       3.354e+00      -4.721e+00       2.778e-02           0.011           0.006           1.000       4.123e-02          0.2112
  85       3.178e+00      -4.721e+00       2.901e-02          -0.006          -0.003           1.000       4.003e-02          0.2256
  86       3.010e+00      -4.721e+00       2.700e-02          -0.033          -0.018           0.999       3.653e-02          0.1896
  87       2.859e+00      -4.721e+00       2.127e-02          -0.057          -0.031           0.998       3.093e-02          0.1152
  88       2.735e+00      -4.721e+00       1.363e-02          -0.077          -0.042           0.996       2.351e-02          0.0033
  89       2.643e+00      -4.721e+00       6.383e-03          -0.091          -0.049           0.995       1.470e-02         -0.1764
  90       2.591e+00      -4.721e+00       1.571e-03          -0.097          -0.053           0.994       5.001e-03         -0.6145
Strip 8
  91       3.904e+00      -4.472e+00       3.508e-04           0.066           0.036           0.997       5.657e-03          0.0562
  92       3.872e+00      -4.472e+00       2.388e-03           0.063           0.034           0.997       1.664e-02          0.0937
  93       3.800e+00      -4.472e+00       6.763e-03           0.056           0.031           0.998       2.664e-02          0.1303
  94       3.691e+00      -4.472e+00       1.261e-02           0.048           0.026           0.999       3.508e-02          0.1606
  95       3.553e+00      -4.472e+00       1.878e-02           0.037           0.020           0.999       4.148e-02          0.1847
  96       3.392e+00      -4.472e+00       2.415e-02           0.024           0.013           1.000       4.546e-02          0.2018
  97       3.219e+00      -4.472e+00       2.778e-02           0.011           0.006           1.000       4.681e-02          0.2184
  98       3.043e+00      -4.472e+00       2.901e-02          -0.006          -0.003           1.000       4.544e-02          0.2318
  99       2.875e+00      -4.472e+00       2.700e-02          -0.033          -0.018           0.999       4.147e-02          0.1951
 100       2.724e+00      -4.472e+00       2.127e-02          -0.057          -0.031           0.998       3.511e-02          0.1205
 101       2.599e+00      -4.472e+00       1.363e-02          -0.077          -0.042           0.996       2.669e-02          0.0092
 102       2.508e+00      -4.472e+00       6.383e-03          -0.091          -0.049           0.995       1.669e-02         -0.1680
 103       2.455e+00      -4.472e+00       1.571e-03          -0.097          -0.053           0.994       5.677e-03         -0.5955
Strip 9
 104       3.752e+00      -4.193e+00       3.508e-04           0.066           0.036           0.997       6.292e-03          0.0579
 105       3.720e+00      -4.193e+00       2.388e-03           0.063           0.034           0.997       1.851e-02          0.0967
 106       3.648e+00      -4.193e+00       6.763e-03           0.056           0.031           0.998       2.963e-02          0.1344
 107       3.539e+00      -4.193e+00       1.261e-02           0.048           0.026           0.999       3.902e-02          0.1655
 108       3.401e+00      -4.193e+00       1.878e-02           0.037           0.020           0.999       4.613e-02          0.1900
 109       3.240e+00      -4.193e+00       2.415e-02           0.024           0.013           1.000       5.056e-02          0.2071
 110       3.067e+00      -4.193e+00       2.778e-02           0.011           0.006           1.000       5.206e-02          0.2233
 111       2.891e+00      -4.193e+00       2.901e-02          -0.006          -0.003           1.000       5.054e-02          0.2364
 112       2.722e+00      -4.193e+00       2.700e-02          -0.033          -0.018           0.999       4.613e-02          0.1993
 113       2.572e+00      -4.193e+00       2.127e-02          -0.057          -0.031           0.998       3.905e-02          0.1248
 114       2.447e+00      -4.193e+00       1.363e-02          -0.077          -0.042           0.996       2.969e-02          0.0141
 115       2.356e+00      -4.193e+00       6.383e-03          -0.091          -0.049           0.995       1.856e-02         -0.1610
 116       2.303e+00      -4.193e+00       1.571e-03          -0.097          -0.053           0.994       6.314e-03         -0.5794
Strip 10
 117       3.584e+00      -3.886e+00       3.508e-04           0.066           0.036           0.997       6.884e-03          0.0590
 118       3.552e+00      -3.886e+00       2.388e-03           0.063           0.034           0.997       2.025e-02          0.0986
 119       3.480e+00      -3.886e+00       6.763e-03           0.056           0.031           0.998       3.242e-02          0.1370
 120       3.372e+00      -3.886e+00       1.261e-02           0.048           0.026           0.999       4.269e-02          0.1687
 121       3.233e+00      -3.886e+00       1.878e-02           0.037           0.020           0.999       5.047e-02          0.1934
 122       3.072e+00      -3.886e+00       2.415e-02           0.024           0.013           1.000       5.532e-02          0.2106
 123       2.899e+00      -3.886e+00       2.778e-02           0.011           0.006           1.000       5.696e-02          0.2268
 124       2.723e+00      -3.886e+00       2.901e-02          -0.006          -0.003           1.000       5.530e-02          0.2396
 125       2.555e+00      -3.886e+00       2.700e-02          -0.033          -0.018           0.999       5.047e-02          0.2025
 126       2.404e+00      -3.886e+00       2.127e-02          -0.057          -0.031           0.998       4.272e-02          0.1280
 127       2.279e+00      -3.886e+00       1.363e-02          -0.077          -0.042           0.996       3.248e-02          0.0178
 128       2.188e+00      -3.886e+00       6.383e-03          -0.091          -0.049           0.995       2.030e-02         -0.1556
 129       2.136e+00      -3.886e+00       1.571e-03          -0.097          -0.053           0.994       6.908e-03         -0.5672
Strip 11
 130       3.402e+00      -3.552e+00       3.508e-04           0.066           0.036           0.997       7.429e-03          0.0597
 131       3.370e+00      -3.552e+00       2.388e-03           0.063           0.034           0.997       2.185e-02          0.0998
 132       3.298e+00      -3.552e+00       6.763e-03           0.056           0.031           0.998       3.499e-02          0.1387
 133       3.189e+00      -3.552e+00       1.261e-02           0.048           0.026           0.999       4.607e-02          0.1708
 134       3.051e+00      -3.552e+00       1.878e-02           0.037           0.020           0.999       5.447e-02          0.1957
 135       2.890e+00      -3.552e+00       2.415e-02           0.024           0.013           1.000       5.970e-02          0.2130
 136       2.717e+00      -3.552e+00       2.778e-02           0.011           0.006           1.000       6.147e-02          0.2291
 137       2.541e+00      -3.552e+00       2.901e-02          -0.006          -0.003           1.000       5.968e-02          0.2419
 138       2.372e+00      -3.552e+00       2.700e-02          -0.033          -0.018           0.999       5.446e-02          0.2047
 139       2.222e+00      -3.552e+00       2.127e-02          -0.057          -0.031           0.998       4.610e-02          0.1302
 140       2.097e+00      -3.552e+00       1.363e-02          -0.077          -0.042           0.996       3.505e-02          0.0203
 141       2.006e+00      -3.552e+00       6.383e-03          -0.091          -0.049           0.995       2.191e-02         -0.1521
 142       1.953e+00      -3.552e+00       1.571e-03          -0.097          -0.053           0.994       7.455e-03         -0.5592
Strip 12
 143       3.206e+00      -3.193e+00       3.508e-04           0.066           0.036           0.997       7.924e-03          0.0602
 144       3.175e+00      -3.193e+00       2.388e-03           0.063           0.034           0.997       2.330e-02          0.1006
 145       3.102e+00      -3.193e+00       6.763e-03           0.056           0.031           0.998       3.731e-02          0.1398
 146       2.994e+00      -3.193e+00       1.261e-02           0.048           0.026           0.999       4.914e-02          0.1721
 147       2.855e+00      -3.193e+00       1.878e-02           0.037           0.020           0.999       5.809e-02          0.1972
 148       2.694e+00      -3.193e+00       2.415e-02           0.024           0.013           1.000       6.367e-02          0.2145
 149       2.521e+00      -3.193e+00       2.778e-02           0.011           0.006           1.000       6.556e-02          0.2306
 150       2.345e+00      -3.193e+00       2.901e-02          -0.006          -0.003           1.000       6.365e-02          0.2433
 151       2.177e+00      -3.193e+00       2.700e-02          -0.033          -0.018           0.999       5.808e-02          0.2060
 152       2.026e+00      -3.193e+00       2.127e-02          -0.057          -0.031           0.998       4.917e-02          0.1314
 153       1.901e+00      -3.193e+00       1.363e-02          -0.077          -0.042           0.996       3.738e-02          0.0216
 154       1.810e+00      -3.193e+00       6.383e-03          -0.091          -0.049           0.995       2.337e-02         -0.1505
 155       1.758e+00      -3.193e+00       1.571e-03          -0.097          -0.053           0.994       7.951e-03         -0.5557
Strip 13
 156       2.999e+00      -2.813e+00       3.508e-04           0.066           0.036           0.997       8.364e-03          0.0605
 157       2.967e+00      -2.813e+00       2.388e-03           0.063           0.034           0.997       2.460e-02          0.1011
 158       2.895e+00      -2.813e+00       6.763e-03           0.056           0.031           0.998       3.939e-02          0.1405
 159       2.786e+00      -2.813e+00       1.261e-02           0.048           0.026           0.999       5.187e-02          0.1729
 160       2.648e+00      -2.813e+00       1.878e-02           0.037           0.020           0.999       6.132e-02          0.1981
 161       2.487e+00      -2.813e+00       2.415e-02           0.024           0.013           1.000       6.721e-02          0.2154
 162       2.314e+00      -2.813e+00       2.778e-02           0.011           0.006           1.000       6.920e-02          0.2314
 163       2.138e+00      -2.813e+00       2.901e-02          -0.006          -0.003           1.000       6.718e-02          0.2439
 164       1.969e+00      -2.813e+00       2.700e-02          -0.033          -0.018           0.999       6.131e-02          0.2065
 165       1.819e+00      -2.813e+00       2.127e-02          -0.057          -0.031           0.998       5.190e-02          0.1317
 166       1.694e+00      -2.813e+00       1.363e-02          -0.077          -0.042           0.996       3.946e-02          0.0215
 167       1.603e+00      -2.813e+00       6.383e-03          -0.091          -0.049           0.995       2.467e-02         -0.1508
 168       1.550e+00      -2.813e+00       1.571e-03          -0.097          -0.053           0.994       8.392e-03         -0.5568
Strip 14
 169       2.781e+00      -2.414e+00       3.508e-04           0.066           0.036           0.997       8.747e-03          0.0607
 170       2.749e+00      -2.414e+00       2.388e-03           0.063           0.034           0.997       2.573e-02          0.1014
 171       2.677e+00      -2.414e+00       6.763e-03           0.056           0.031           0.998       4.119e-02          0.1409
 172       2.568e+00      -2.414e+00       1.261e-02           0.048           0.026           0.999       5.424e-02          0.1734
 173       2.430e+00      -2.414e+00       1.878e-02           0.037           0.020           0.999       6.413e-02          0.1985
 174       2.269e+00      -2.414e+00       2.415e-02           0.024           0.013           1.000       7.029e-02          0.2157
 175       2.096e+00      -2.414e+00       2.778e-02           0.011           0.006           1.000       7.237e-02          0.2316
 176       1.920e+00      -2.414e+00       2.901e-02          -0.006          -0.003           1.000       7.026e-02          0.2439
 177       1.752e+00      -2.414e+00       2.700e-02          -0.033          -0.018           0.999       6.412e-02          0.2061
 178       1.601e+00      -2.414e+00       2.127e-02          -0.057          -0.031           0.998       5.428e-02          0.1309
 179       1.476e+00      -2.414e+00       1.363e-02          -0.077          -0.042           0.996       4.126e-02          0.0202
 180       1.385e+00      -2.414e+00       6.383e-03          -0.091          -0.049           0.995       2.580e-02         -0.1534
 181       1.332e+00      -2.414e+00       1.571e-03          -0.097          -0.053           0.994       8.776e-03         -0.5632
Strip 15
 182       2.554e+00      -1.998e+00       3.508e-04           0.066           0.036           0.997       9.070e-03          0.0607
 183       2.523e+00      -1.998e+00       2.388e-03           0.063           0.034           0.997       2.668e-02          0.1015
 184       2.450e+00      -1.998e+00       6.763e-03           0.056           0.031           0.998       4.271e-02          0.1411
 185       2.342e+00      -1.998e+00       1.261e-02           0.048           0.026           0.999       5.625e-02          0.1735
 186       2.203e+00      -1.998e+00       1.878e-02           0.037           0.020           0.999       6.650e-02          0.1986
 187       2.042e+00      -1.998e+00       2.415e-02           0.024           0.013           1.000       7.288e-02          0.2156
 188       1.869e+00      -1.998e+00       2.778e-02           0.011           0.006           1.000       7.504e-02          0.2312
 189       1.693e+00      -1.998e+00       2.901e-02          -0.006          -0.003           1.000       7.286e-02          0.2432
 190       1.525e+00      -1.998e+00       2.700e-02          -0.033          -0.018           0.999       6.649e-02          0.2049
 191       1.374e+00      -1.998e+00       2.127e-02          -0.057          -0.031           0.998       5.628e-02          0.1290
 192       1.249e+00      -1.998e+00       1.363e-02          -0.077          -0.042           0.996       4.279e-02          0.0172
 193       1.158e+00      -1.998e+00       6.383e-03          -0.091          -0.049           0.995       2.675e-02         -0.1586
 194       1.106e+00      -1.998e+00       1.571e-03          -0.097          -0.053           0.994       9.101e-03         -0.5759
Strip 16
 195       2.320e+00      -1.568e+00       3.508e-04           0.066           0.036           0.997       9.331e-03          0.0608
 196       2.288e+00      -1.568e+00       2.388e-03           0.063           0.034           0.997       2.744e-02          0.1016
 197       2.216e+00      -1.568e+00       6.763e-03           0.056           0.031           0.998       4.394e-02          0.1411
 198       2.107e+00      -1.568e+00       1.261e-02           0.048           0.026           0.999       5.787e-02          0.1735
 199       1.969e+00      -1.568e+00       1.878e-02           0.037           0.020           0.999       6.841e-02          0.1984
 200       1.808e+00      -1.568e+00       2.415e-02           0.024           0.013           1.000       7.498e-02          0.2152
 201       1.635e+00      -1.568e+00       2.778e-02           0.011           0.006           1.000       7.720e-02          0.2304
 202       1.459e+00      -1.568e+00       2.901e-02          -0.006          -0.003           1.000       7.496e-02          0.2417
 203       1.290e+00      -1.568e+00       2.700e-02          -0.033          -0.018           0.999       6.840e-02          0.2026
 204       1.140e+00      -1.568e+00       2.127e-02          -0.057          -0.031           0.998       5.791e-02          0.1256
 205       1.015e+00      -1.568e+00       1.363e-02          -0.077          -0.042           0.996       4.402e-02          0.0120
 206       9.238e-01      -1.568e+00       6.383e-03          -0.091          -0.049           0.995       2.752e-02         -0.1673
 207       8.713e-01      -1.568e+00       1.571e-03          -0.097          -0.053           0.994       9.363e-03         -0.5971
Strip 17
 208       2.080e+00      -1.128e+00       3.508e-04           0.066           0.036           0.997       9.529e-03          0.0609
 209       2.048e+00      -1.128e+00       2.388e-03           0.063           0.034           0.997       2.803e-02          0.1017
 210       1.976e+00      -1.128e+00       6.763e-03           0.056           0.031           0.998       4.487e-02          0.1412
 211       1.867e+00      -1.128e+00       1.261e-02           0.048           0.026           0.999       5.909e-02          0.1735
 212       1.728e+00      -1.128e+00       1.878e-02           0.037           0.020           0.999       6.986e-02          0.1982
 213       1.568e+00      -1.128e+00       2.415e-02           0.024           0.013           1.000       7.657e-02          0.2145
 214       1.394e+00      -1.128e+00       2.778e-02           0.011           0.006           1.000       7.884e-02          0.2290
 215       1.219e+00      -1.128e+00       2.901e-02          -0.006          -0.003           1.000       7.654e-02          0.2394
 216       1.050e+00      -1.128e+00       2.700e-02          -0.033          -0.018           0.999       6.985e-02          0.1989
 217       8.994e-01      -1.128e+00       2.127e-02          -0.057          -0.031           0.998       5.913e-02          0.1201
 218       7.748e-01      -1.128e+00       1.363e-02          -0.077          -0.042           0.996       4.495e-02          0.0037
 219       6.836e-01      -1.128e+00       6.383e-03          -0.091          -0.049           0.995       2.810e-02         -0.1814
 220       6.311e-01      -1.128e+00       1.571e-03          -0.097          -0.053           0.994       9.561e-03         -0.6312
Strip 18
 221       1.835e+00      -6.797e-01       3.508e-04           0.066           0.036           0.997       9.661e-03          0.0613
 222       1.804e+00      -6.797e-01       2.388e-03           0.063           0.034           0.997       2.841e-02          0.1024
 223       1.731e+00      -6.797e-01       6.763e-03           0.056           0.031           0.998       4.550e-02          0.1422
 224       1.623e+00      -6.797e-01       1.261e-02           0.048           0.026           0.999       5.991e-02          0.1745
 225       1.484e+00      -6.797e-01       1.878e-02           0.037           0.020           0.999       7.083e-02          0.1988
 226       1.323e+00      -6.797e-01       2.415e-02           0.024           0.013           1.000       7.763e-02          0.2142
 227       1.150e+00      -6.797e-01       2.778e-02           0.011           0.006           1.000       7.993e-02          0.2272
 228       9.742e-01      -6.797e-01       2.901e-02          -0.006          -0.003           1.000       7.761e-02          0.2354
 229       8.059e-01      -6.797e-01       2.700e-02          -0.033          -0.018           0.999       7.082e-02          0.1925
 230       6.551e-01      -6.797e-01       2.127e-02          -0.057          -0.031           0.998       5.995e-02          0.1106
 231       5.304e-01      -6.797e-01       1.363e-02          -0.077          -0.042           0.996       4.558e-02         -0.0101
 232       4.392e-01      -6.797e-01       6.383e-03          -0.091          -0.049           0.995       2.849e-02         -0.2043
 233       3.868e-01      -6.797e-01       1.571e-03          -0.097          -0.053           0.994       9.694e-03         -0.6859
Strip 19
 234       1.589e+00      -2.271e-01       3.508e-04           0.066           0.036           0.997       9.728e-03          0.0642
 235       1.557e+00      -2.271e-01       2.388e-03           0.063           0.034           0.997       2.861e-02          0.1073
 236       1.485e+00      -2.271e-01       6.763e-03           0.056           0.031           0.998       4.581e-02          0.1486
 237       1.376e+00      -2.271e-01       1.261e-02           0.048           0.026           0.999       6.033e-02          0.1811
 238       1.237e+00      -2.271e-01       1.878e-02           0.037           0.020           0.999       7.132e-02          0.2036
 239       1.076e+00      -2.271e-01       2.415e-02           0.024           0.013           1.000       7.817e-02          0.2154
 240       9.032e-01      -2.271e-01       2.778e-02           0.011           0.006           1.000       8.048e-02          0.2236
 241       7.273e-01      -2.271e-01       2.901e-02          -0.006          -0.003           1.000       7.814e-02          0.2265
 242       5.590e-01      -2.271e-01       2.700e-02          -0.033          -0.018           0.999       7.131e-02          0.1783
 243       4.082e-01      -2.271e-01       2.127e-02          -0.057          -0.031           0.998       6.037e-02          0.0920
 244       2.835e-01      -2.271e-01       1.363e-02          -0.077          -0.042           0.996       4.589e-02         -0.0337
 245       1.924e-01      -2.271e-01       6.383e-03          -0.091          -0.049           0.995       2.869e-02         -0.2383
 246       1.399e-01      -2.271e-01       1.571e-03          -0.097          -0.053           0.994       9.761e-03         -0.7619
Strip 20
 247       1.589e+00       2.271e-01       3.508e-04           0.066          -0.036           0.997       9.728e-03          0.0642
 248       1.557e+00       2.271e-01       2.388e-03           0.063          -0.034           0.997       2.861e-02          0.1073
 249       1.485e+00       2.271e-01       6.763e-03           0.056          -0.031           0.998       4.581e-02          0.1486
 250       1.376e+00       2.271e-01       1.261e-02           0.048          -0.026           0.999       6.033e-02          0.1811
 251       1.237e+00       2.271e-01       1.878e-02           0.037          -0.020           0.999       7.132e-02          0.2036
 252       1.076e+00       2.271e-01       2.415e-02           0.024          -0.013           1.000       7.817e-02          0.2154
 253       9.032e-01       2.271e-01       2.778e-02           0.011          -0.006           1.000       8.048e-02          0.2236
 254       7.273e-01       2.271e-01       2.901e-02          -0.006           0.003           1.000       7.814e-02          0.2265
 255       5.590e-01       2.271e-01       2.700e-02          -0.033           0.018           0.999       7.131e-02          0.1783
 256       4.082e-01       2.271e-01       2.127e-02          -0.057           0.031           0.998       6.037e-02          0.0920
 257       2.835e-01       2.271e-01       1.363e-02          -0.077           0.042           0.996       4.589e-02         -0.0337
 258       1.924e-01       2.271e-01       6.383e-03          -0.091           0.049           0.995       2.869e-02         -0.2383
 259       1.399e-01       2.271e-01       1.571e-03          -0.097           0.053           0.994       9.761e-03         -0.7619
Strip 21
 260       1.835e+00       6.797e-01       3.508e-04           0.066          -0.036           0.997       9.661e-03          0.0613
 261       1.804e+00       6.797e-01       2.388e-03           0.063          -0.034           0.997       2.841e-02          0.1024
 262       1.731e+00       6.797e-01       6.763e-03           0.056          -0.031           0.998       4.550e-02          0.1422
 263       1.623e+00       6.797e-01       1.261e-02           0.048          -0.026           0.999       5.991e-02          0.1745
 264       1.484e+00       6.797e-01       1.878e-02           0.037          -0.020           0.999       7.083e-02          0.1988
 265       1.323e+00       6.797e-01       2.415e-02           0.024          -0.013           1.000       7.763e-02          0.2142
 266       1.150e+00       6.797e-01       2.778e-02           0.011          -0.006           1.000       7.993e-02          0.2272
 267       9.742e-01       6.797e-01       2.901e-02          -0.006           0.003           1.000       7.761e-02          0.2354
 268       8.059e-01       6.797e-01       2.700e-02          -0.033           0.018           0.999       7.082e-02          0.1925
 269       6.551e-01       6.797e-01       2.127e-02          -0.057           0.031           0.998       5.995e-02          0.1106
 270       5.304e-01       6.797e-01       1.363e-02          -0.077           0.042           0.996       4.558e-02         -0.0101
 271       4.392e-01       6.797e-01       6.383e-03          -0.091           0.049           0.995       2.849e-02         -0.2043
 272       3.868e-01       6.797e-01       1.571e-03          -0.097           0.053           0.994       9.694e-03         -0.6859
Strip 22
 273       2.080e+00       1.128e+00       3.508e-04           0.066          -0.036           0.997       9.529e-03          0.0609
 274       2.048e+00       1.128e+00       2.388e-03           0.063          -0.034           0.997       2.803e-02          0.1017
 275       1.976e+00       1.128e+00       6.763e-03           0.056          -0.031           0.998       4.487e-02          0.1412
 276       1.867e+00       1.128e+00       1.261e-02           0.048          -0.026           0.999       5.909e-02          0.1735
 277       1.728e+00       1.128e+00       1.878e-02           0.037          -0.020           0.999       6.986e-02          0.1982
 278       1.568e+00       1.128e+00       2.415e-02           0.024          -0.013           1.000       7.657e-02          0.2145
 279       1.394e+00       1.128e+00       2.778e-02           0.011          -0.006           1.000       7.884e-02          0.2290
 280       1.219e+00       1.128e+00       2.901e-02          -0.006           0.003           1.000       7.654e-02          0.2394
 281       1.050e+00       1.128e+00       2.700e-02          -0.033           0.018           0.999       6.985e-02          0.1989
 282       8.994e-01       1.128e+00       2.127e-02          -0.057           0.031           0.998       5.913e-02          0.1201
 283       7.748e-01       1.128e+00       1.363e-02          -0.077           0.042           0.996       4.495e-02          0.0037
 284       6.836e-01       1.128e+00       6.383e-03          -0.091           0.049           0.995       2.810e-02         -0.1814
 285       6.311e-01       1.128e+00       1.571e-03          -0.097           0.053           0.994       9.561e-03         -0.6312
Strip 23
 286       2.320e+00       1.568e+00       3.508e-04           0.066          -0.036           0.997       9.331e-03          0.0608
 287       2.288e+00       1.568e+00       2.388e-03           0.063          -0.034           0.997       2.744e-02          0.1016
 288       2.216e+00       1.568e+00       6.763e-03           0.056          -0.031           0.998       4.394e-02          0.1411
 289       2.107e+00       1.568e+00       1.261e-02           0.048          -0.026           0.999       5.787e-02          0.1735
 290       1.969e+00       1.568e+00       1.878e-02           0.037          -0.020           0.999       6.841e-02          0.1984
 291       1.808e+00       1.568e+00       2.415e-02           0.024          -0.013           1.000       7.498e-02          0.2152
 292       1.635e+00       1.568e+00       2.778e-02           0.011          -0.006           1.000       7.720e-02          0.2304
 293       1.459e+00       1.568e+00       2.901e-02          -0.006           0.003           1.000       7.496e-02          0.2417
 294       1.290e+00       1.568e+00       2.700e-02          -0.033           0.018           0.999       6.840e-02          0.2026
 295       1.140e+00       1.568e+00       2.127e-02          -0.057           0.031           0.998       5.791e-02          0.1256
 296       1.015e+00       1.568e+00       1.363e-02          -0.077           0.042           0.996       4.402e-02          0.0120
 297       9.238e-01       1.568e+00       6.383e-03          -0.091           0.049           0.995       2.752e-02         -0.1673
 298       8.713e-01       1.568e+00       1.571e-03          -0.097           0.053           0.994       9.363e-03         -0.5971
Strip 24
 299       2.554e+00       1.998e+00       3.508e-04           0.066          -0.036           0.997       9.070e-03          0.0607
 300       2.523e+00       1.998e+00       2.388e-03           0.063          -0.034           0.997       2.668e-02          0.1015
 301       2.450e+00       1.998e+00       6.763e-03           0.056          -0.031           0.998       4.271e-02          0.1411
 302       2.342e+00       1.998e+00       1.261e-02           0.048          -0.026           0.999       5.625e-02          0.1735
 303       2.203e+00       1.998e+00       1.878e-02           0.037          -0.020           0.999       6.650e-02          0.1986
 304       2.042e+00       1.998e+00       2.415e-02           0.024          -0.013           1.000       7.288e-02          0.2156
 305       1.869e+00       1.998e+00       2.778e-02           0.011          -0.006           1.000       7.504e-02          0.2312
 306       1.693e+00       1.998e+00       2.901e-02          -0.006           0.003           1.000       7.286e-02          0.2432
 307       1.525e+00       1.998e+00       2.700e-02          -0.033           0.018           0.999       6.649e-02          0.2049
 308       1.374e+00       1.998e+00       2.127e-02          -0.057           0.031           0.998       5.628e-02          0.1290
 309       1.249e+00       1.998e+00       1.363e-02          -0.077           0.042           0.996       4.279e-02          0.0172
 310       1.158e+00       1.998e+00       6.383e-03          -0.091           0.049           0.995       2.675e-02         -0.1586
 311       1.106e+00       1.998e+00       1.571e-03          -0.097           0.053           0.994       9.101e-03         -0.5759
Strip 25
 312       2.781e+00       2.414e+00       3.508e-04           0.066          -0.036           0.997       8.747e-03          0.0607
 313       2.749e+00       2.414e+00       2.388e-03           0.063          -0.034           0.997       2.573e-02          0.1014
 314       2.677e+00       2.414e+00       6.763e-03           0.056          -0.031           0.998       4.119e-02          0.1409
 315       2.568e+00       2.414e+00       1.261e-02           0.048          -0.026           0.999       5.424e-02          0.1734
 316       2.430e+00       2.414e+00       1.878e-02           0.037          -0.020           0.999       6.413e-02          0.1985
 317       2.269e+00       2.414e+00       2.415e-02           0.024          -0.013           1.000       7.029e-02          0.2157
 318       2.096e+00       2.414e+00       2.778e-02           0.011          -0.006           1.000       7.237e-02          0.2316
 319       1.920e+00       2.414e+00       2.901e-02          -0.006           0.003           1.000       7.026e-02          0.2439
 320       1.752e+00       2.414e+00       2.700e-02          -0.033           0.018           0.999       6.412e-02          0.2061
 321       1.601e+00       2.414e+00       2.127e-02          -0.057           0.031           0.998       5.428e-02          0.1309
 322       1.476e+00       2.414e+00       1.363e-02          -0.077           0.042           0.996       4.126e-02          0.0202
 323       1.385e+00       2.414e+00       6.383e-03          -0.091           0.049           0.995       2.580e-02         -0.1534
 324       1.332e+00       2.414e+00       1.571e-03          -0.097           0.053           0.994       8.776e-03         -0.5632
Strip 26
 325       2.999e+00       2.813e+00       3.508e-04           0.066          -0.036           0.997       8.364e-03          0.0605
 326       2.967e+00       2.813e+00       2.388e-03           0.063          -0.034           0.997       2.460e-02          0.1011
 327       2.895e+00       2.813e+00       6.763e-03           0.056          -0.031           0.998       3.939e-02          0.1405
 328       2.786e+00       2.813e+00       1.261e-02           0.048          -0.026           0.999       5.187e-02          0.1729
 329       2.648e+00       2.813e+00       1.878e-02           0.037          -0.020           0.999       6.132e-02          0.1981
 330       2.487e+00       2.813e+00       2.415e-02           0.024          -0.013           1.000       6.721e-02          0.2154
 331       2.314e+00       2.813e+00       2.778e-02           0.011          -0.006           1.000       6.920e-02          0.2314
 332       2.138e+00       2.813e+00       2.901e-02          -0.006           0.003           1.000       6.718e-02          0.2439
 333       1.969e+00       2.813e+00       2.700e-02          -0.033           0.018           0.999       6.131e-02          0.2065
 334       1.819e+00       2.813e+00       2.127e-02          -0.057           0.031           0.998       5.190e-02          0.1317
 335       1.694e+00       2.813e+00       1.363e-02          -0.077           0.042           0.996       3.946e-02          0.0215
 336       1.603e+00       2.813e+00       6.383e-03          -0.091           0.049           0.995       2.467e-02         -0.1508
 337       1.550e+00       2.813e+00       1.571e-03          -0.097           0.053           0.994       8.392e-03         -0.5568
Strip 27
 338       3.206e+00       3.193e+00       3.508e-04           0.066          -0.036           0.997       7.924e-03          0.0602
 339       3.175e+00       3.193e+00       2.388e-03           0.063          -0.034           0.997       2.330e-02          0.1006
 340       3.102e+00       3.193e+00       6.763e-03           0.056          -0.031           0.998       3.731e-02          0.1398
 341       2.994e+00       3.193e+00       1.261e-02           0.048          -0.026           0.999       4.914e-02          0.1721
 342       2.855e+00       3.193e+00       1.878e-02           0.037          -0.020           0.999       5.809e-02          0.1972
 343       2.694e+00       3.193e+00       2.415e-02           0.024          -0.013           1.000       6.367e-02          0.2145
 344       2.521e+00       3.193e+00       2.778e-02           0.011          -0.006           1.000       6.556e-02          0.2306
 345       2.345e+00       3.193e+00       2.901e-02          -0.006           0.003           1.000       6.365e-02          0.2433
 346       2.177e+00       3.193e+00       2.700e-02          -0.033           0.018           0.999       5.808e-02          0.2060
 347       2.026e+00       3.193e+00       2.127e-02          -0.057           0.031           0.998       4.917e-02          0.1314
 348       1.901e+00       3.193e+00       1.363e-02          -0.077           0.042           0.996       3.738e-02          0.0216
 349       1.810e+00       3.193e+00       6.383e-03          -0.091           0.049           0.995       2.337e-02         -0.1505
 350       1.758e+00       3.193e+00       1.571e-03          -0.097           0.053           0.994       7.951e-03         -0.5557
Strip 28
 351       3.402e+00       3.552e+00       3.508e-04           0.066          -0.036           0.997       7.429e-03          0.0597
 352       3.370e+00       3.552e+00       2.388e-03           0.063          -0.034           0.997       2.185e-02          0.0998
 353       3.298e+00       3.552e+00       6.763e-03           0.056          -0.031           0.998       3.499e-02          0.1387
 354       3.189e+00       3.552e+00       1.261e-02           0.048          -0.026           0.999       4.607e-02          0.1708
 355       3.051e+00       3.552e+00       1.878e-02           0.037          -0.020           0.999       5.447e-02          0.1957
 356       2.890e+00       3.552e+00       2.415e-02           0.024          -0.013           1.000       5.970e-02          0.2130
 357       2.717e+00       3.552e+00       2.778e-02           0.011          -0.006           1.000       6.147e-02          0.2291
 358       2.541e+00       3.552e+00       2.901e-02          -0.006           0.003           1.000       5.968e-02          0.2419
 359       2.372e+00       3.552e+00       2.700e-02          -0.033           0.018           0.999       5.446e-02          0.2047
 360       2.222e+00       3.552e+00       2.127e-02          -0.057           0.031           0.998       4.610e-02          0.1302
 361       2.097e+00       3.552e+00       1.363e-02          -0.077           0.042           0.996       3.505e-02          0.0203
 362       2.006e+00       3.552e+00       6.383e-03          -0.091           0.049           0.995       2.191e-02         -0.1521
 363       1.953e+00       3.552e+00       1.571e-03          -0.097           0.053           0.994       7.455e-03         -0.5592
Strip 29
 364       3.584e+00       3.886e+00       3.508e-04           0.066          -0.036           0.997       6.884e-03          0.0590
 365       3.552e+00       3.886e+00       2.388e-03           0.063          -0.034           0.997       2.025e-02          0.0986
 366       3.480e+00       3.886e+00       6.763e-03           0.056          -0.031           0.998       3.242e-02          0.1370
 367       3.372e+00       3.886e+00       1.261e-02           0.048          -0.026           0.999       4.269e-02          0.1687
 368       3.233e+00       3.886e+00       1.878e-02           0.037          -0.020           0.999       5.047e-02          0.1934
 369       3.072e+00       3.886e+00       2.415e-02           0.024          -0.013           1.000       5.532e-02          0.2106
 370       2.899e+00       3.886e+00       2.778e-02           0.011          -0.006           1.000       5.696e-02          0.2268
 371       2.723e+00       3.886e+00       2.901e-02          -0.006           0.003           1.000       5.530e-02          0.2396
 372       2.555e+00       3.886e+00       2.700e-02          -0.033           0.018           0.999       5.047e-02          0.2025
 373       2.404e+00       3.886e+00       2.127e-02          -0.057           0.031           0.998       4.272e-02          0.1280
 374       2.279e+00       3.886e+00       1.363e-02          -0.077           0.042           0.996       3.248e-02          0.0178
 375       2.188e+00       3.886e+00       6.383e-03          -0.091           0.049           0.995       2.030e-02         -0.1556
 376       2.136e+00       3.886e+00       1.571e-03          -0.097           0.053           0.994       6.908e-03         -0.5672
Strip 30
 377       3.752e+00       4.193e+00       3.508e-04           0.066          -0.036           0.997       6.292e-03          0.0579
 378       3.720e+00       4.193e+00       2.388e-03           0.063          -0.034           0.997       1.851e-02          0.0967
 379       3.648e+00       4.193e+00       6.763e-03           0.056          -0.031           0.998       2.963e-02          0.1344
 380       3.539e+00       4.193e+00       1.261e-02           0.048          -0.026           0.999       3.902e-02          0.1655
 381       3.401e+00       4.193e+00       1.878e-02           0.037          -0.020           0.999       4.613e-02          0.1900
 382       3.240e+00       4.193e+00       2.415e-02           0.024          -0.013           1.000       5.056e-02          0.2071
 383       3.067e+00       4.193e+00       2.778e-02           0.011          -0.006           1.000       5.206e-02          0.2233
 384       2.891e+00       4.193e+00       2.901e-02          -0.006           0.003           1.000       5.054e-02          0.2364
 385       2.722e+00       4.193e+00       2.700e-02          -0.033           0.018           0.999       4.613e-02          0.1993
 386       2.572e+00       4.193e+00       2.127e-02          -0.057           0.031           0.998       3.905e-02          0.1248
 387       2.447e+00       4.193e+00       1.363e-02          -0.077           0.042           0.996       2.969e-02          0.0141
 388       2.356e+00       4.193e+00       6.383e-03          -0.091           0.049           0.995       1.856e-02         -0.1610
 389       2.303e+00       4.193e+00       1.571e-03          -0.097           0.053           0.994       6.314e-03         -0.5794
Strip 31
 390       3.904e+00       4.472e+00       3.508e-04           0.066          -0.036           0.997       5.657e-03          0.0562
 391       3.872e+00       4.472e+00       2.388e-03           0.063          -0.034           0.997       1.664e-02          0.0937
 392       3.800e+00       4.472e+00       6.763e-03           0.056          -0.031           0.998       2.664e-02          0.1303
 393       3.691e+00       4.472e+00       1.261e-02           0.048          -0.026           0.999       3.508e-02          0.1606
 394       3.553e+00       4.472e+00       1.878e-02           0.037          -0.020           0.999       4.148e-02          0.1847
 395       3.392e+00       4.472e+00       2.415e-02           0.024          -0.013           1.000       4.546e-02          0.2018
 396       3.219e+00       4.472e+00       2.778e-02           0.011          -0.006           1.000       4.681e-02          0.2184
 397       3.043e+00       4.472e+00       2.901e-02          -0.006           0.003           1.000       4.544e-02          0.2318
 398       2.875e+00       4.472e+00       2.700e-02          -0.033           0.018           0.999       4.147e-02          0.1951
 399       2.724e+00       4.472e+00       2.127e-02          -0.057           0.031           0.998       3.511e-02          0.1205
 400       2.599e+00       4.472e+00       1.363e-02          -0.077           0.042           0.996       2.669e-02          0.0092
 401       2.508e+00       4.472e+00       6.383e-03          -0.091           0.049           0.995       1.669e-02         -0.1680
 402       2.455e+00       4.472e+00       1.571e-03          -0.097           0.053           0.994       5.677e-03         -0.5955
Strip 32
 403       4.040e+00       4.721e+00       3.508e-04           0.066          -0.036           0.997       4.984e-03          0.0536
 404       4.008e+00       4.721e+00       2.388e-03           0.063          -0.034           0.997       1.466e-02          0.0893
 405       3.936e+00       4.721e+00       6.763e-03           0.056          -0.031           0.998       2.347e-02          0.1241
 406       3.827e+00       4.721e+00       1.261e-02           0.048          -0.026           0.999       3.091e-02          0.1531
 407       3.688e+00       4.721e+00       1.878e-02           0.037          -0.020           0.999       3.654e-02          0.1766
 408       3.528e+00       4.721e+00       2.415e-02           0.024          -0.013           1.000       4.005e-02          0.1939
 409       3.354e+00       4.721e+00       2.778e-02           0.011          -0.006           1.000       4.123e-02          0.2112
 410       3.178e+00       4.721e+00       2.901e-02          -0.006           0.003           1.000       4.003e-02          0.2256
 411       3.010e+00       4.721e+00       2.700e-02          -0.033           0.018           0.999       3.653e-02          0.1896
 412       2.859e+00       4.721e+00       2.127e-02          -0.057           0.031           0.998       3.093e-02          0.1152
 413       2.735e+00       4.721e+00       1.363e-02          -0.077           0.042           0.996       2.351e-02          0.0033
 414       2.643e+00       4.721e+00       6.383e-03          -0.091           0.049           0.995       1.470e-02         -0.1764
 415       2.591e+00       4.721e+00       1.571e-03          -0.097           0.053           0.994       5.001e-03         -0.6145
Strip 33
 416       4.158e+00       4.937e+00       3.508e-04           0.066          -0.036           0.997       4.276e-03          0.0499
 417       4.126e+00       4.937e+00       2.388e-03           0.063          -0.034           0.997       1.258e-02          0.0829
 418       4.054e+00       4.937e+00       6.763e-03           0.056          -0.031           0.998       2.014e-02          0.1151
 419       3.945e+00       4.937e+00       1.261e-02           0.048          -0.026           0.999       2.652e-02          0.1420
 420       3.806e+00       4.937e+00       1.878e-02           0.037          -0.020           0.999       3.135e-02          0.1643
 421       3.645e+00       4.937e+00       2.415e-02           0.024          -0.013           1.000       3.436e-02          0.1817
 422       3.472e+00       4.937e+00       2.778e-02           0.011          -0.006           1.000       3.538e-02          0.2005
 423       3.296e+00       4.937e+00       2.901e-02          -0.006           0.003           1.000       3.435e-02          0.2170
 424       3.128e+00       4.937e+00       2.700e-02          -0.033           0.018           0.999       3.134e-02          0.1829
 425       2.977e+00       4.937e+00       2.127e-02          -0.057           0.031           0.998       2.654e-02          0.1094
 426       2.853e+00       4.937e+00       1.363e-02          -0.077           0.042           0.996       2.017e-02         -0.0029
 427       2.761e+00       4.937e+00       6.383e-03          -0.091           0.049           0.995       1.261e-02         -0.1853
 428       2.709e+00       4.937e+00       1.571e-03          -0.097           0.053           0.994       4.291e-03         -0.6345
Strip 34
 429       4.257e+00       5.119e+00       3.508e-04           0.066          -0.036           0.997       3.539e-03          0.0450
 430       4.225e+00       5.119e+00       2.388e-03           0.063          -0.034           0.997       1.041e-02          0.0746
 431       4.153e+00       5.119e+00       6.763e-03           0.056          -0.031           0.998       1.667e-02          0.1031
 432       4.044e+00       5.119e+00       1.261e-02           0.048          -0.026           0.999       2.195e-02          0.1269
 433       3.906e+00       5.119e+00       1.878e-02           0.037          -0.020           0.999       2.595e-02          0.1470
 434       3.745e+00       5.119e+00       2.415e-02           0.024          -0.013           1.000       2.844e-02          0.1636
 435       3.572e+00       5.119e+00       2.778e-02           0.011          -0.006           1.000       2.928e-02          0.1839
 436       3.396e+00       5.119e+00       2.901e-02          -0.006           0.003           1.000       2.843e-02          0.2042
 437       3.228e+00       5.119e+00       2.700e-02          -0.033           0.018           0.999       2.594e-02          0.1745
 438       3.077e+00       5.119e+00       2.127e-02          -0.057           0.031           0.998       2.196e-02          0.1038
 439       2.952e+00       5.119e+00       1.363e-02          -0.077           0.042           0.996       1.670e-02         -0.0082
 440       2.861e+00       5.119e+00       6.383e-03          -0.091           0.049           0.995       1.044e-02         -0.1927
 441       2.808e+00       5.119e+00       1.571e-03          -0.097           0.053           0.994       3.551e-03         -0.6517
Strip 35
 442       4.337e+00       5.267e+00       3.508e-04           0.066          -0.036           0.997       2.778e-03          0.0391
 443       4.306e+00       5.267e+00       2.388e-03           0.063          -0.034           0.997       8.170e-03          0.0643
 444       4.233e+00       5.267e+00       6.763e-03           0.056          -0.031           0.998       1.308e-02          0.0882
 445       4.125e+00       5.267e+00       1.261e-02           0.048          -0.026           0.999       1.723e-02          0.1080
 446       3.986e+00       5.267e+00       1.878e-02           0.037          -0.020           0.999       2.037e-02          0.1247
 447       3.825e+00       5.267e+00       2.415e-02           0.024          -0.013           1.000       2.232e-02          0.1391
 448       3.652e+00       5.267e+00       2.778e-02           0.011          -0.006           1.000       2.298e-02          0.1593
 449       3.476e+00       5.267e+00       2.901e-02          -0.006           0.003           1.000       2.232e-02          0.1836
 450       3.308e+00       5.267e+00       2.700e-02          -0.033           0.018           0.999       2.036e-02          0.1622
 451       3.157e+00       5.267e+00       2.127e-02          -0.057           0.031           0.998       1.724e-02          0.0994
 452       3.033e+00       5.267e+00       1.363e-02          -0.077           0.042           0.996       1.311e-02         -0.0096
 453       2.941e+00       5.267e+00       6.383e-03          -0.091           0.049           0.995       8.193e-03         -0.1954
 454       2.889e+00       5.267e+00       1.571e-03          -0.097           0.053           0.994       2.787e-03         -0.6593
Strip 36
 455       4.398e+00       5.378e+00       3.508e-04           0.066          -0.036           0.997       1.998e-03          0.0322
 456       4.367e+00       5.378e+00       2.388e-03           0.063          -0.034           0.997       5.876e-03          0.0522
 457       4.294e+00       5.378e+00       6.763e-03           0.056          -0.031           0.998       9.409e-03          0.0709
 458       4.186e+00       5.378e+00       1.261e-02           0.048          -0.026           0.999       1.239e-02          0.0859
 459       4.047e+00       5.378e+00       1.878e-02           0.037          -0.020           0.999       1.465e-02          0.0985
 460       3.886e+00       5.378e+00       2.415e-02           0.024          -0.013           1.000       1.606e-02          0.1094
 461       3.713e+00       5.378e+00       2.778e-02           0.011          -0.006           1.000       1.653e-02          0.1267
 462       3.537e+00       5.378e+00       2.901e-02          -0.006           0.003           1.000       1.605e-02          0.1522
 463       3.369e+00       5.378e+00       2.700e-02          -0.033           0.018           0.999       1.465e-02          0.1402
 464       3.218e+00       5.378e+00       2.127e-02          -0.057           0.031           0.998       1.240e-02          0.0941
 465       3.093e+00       5.378e+00       1.363e-02          -0.077           0.042           0.996       9.426e-03         -0.0019
 466       3.002e+00       5.378e+00       6.383e-03          -0.091           0.049           0.995       5.893e-03         -0.1862
 467       2.950e+00       5.378e+00       1.571e-03          -0.097           0.053           0.994       2.005e-03         -0.6460
Strip 37
 468       4.439e+00       5.453e+00       3.508e-04           0.066          -0.036           0.997       1.204e-03          0.0241
 469       4.407e+00       5.453e+00       2.388e-03           0.063          -0.034           0.997       3.542e-03          0.0385
 470       4.335e+00       5.453e+00       6.763e-03           0.056          -0.031           0.998       5.671e-03          0.0513
 471       4.226e+00       5.453e+00       1.261e-02           0.048          -0.026           0.999       7.468e-03          0.0613
 472       4.088e+00       5.453e+00       1.878e-02           0.037          -0.020           0.999       8.829e-03          0.0697
 473       3.927e+00       5.453e+00       2.415e-02           0.024          -0.013           1.000       9.677e-03          0.0768
 474       3.754e+00       5.453e+00       2.778e-02           0.011          -0.006           1.000       9.964e-03          0.0893
 475       3.578e+00       5.453e+00       2.901e-02          -0.006           0.003           1.000       9.674e-03          0.1106
 476       3.410e+00       5.453e+00       2.700e-02          -0.033           0.018           0.999       8.828e-03          0.1049
 477       3.259e+00       5.453e+00       2.127e-02          -0.057           0.031           0.998       7.473e-03          0.0773
 478       3.134e+00       5.453e+00       1.363e-02          -0.077           0.042           0.996       5.681e-03          0.0149
 479       3.043e+00       5.453e+00       6.383e-03          -0.091           0.049           0.995       3.552e-03         -0.1482
 480       2.990e+00       5.453e+00       1.571e-03          -0.097           0.053           0.994       1.208e-03         -0.5928
Strip 38
 481       4.460e+00       5.491e+00       3.508e-04           0.066          -0.036           0.997       4.023e-04          0.0167
 482       4.428e+00       5.491e+00       2.388e-03           0.063          -0.034           0.997       1.183e-03          0.0237
 483       4.356e+00       5.491e+00       6.763e-03           0.056          -0.031           0.998       1.895e-03          0.0306
 484       4.247e+00       5.491e+00       1.261e-02           0.048          -0.026           0.999       2.495e-03          0.0361
 485       4.108e+00       5.491e+00       1.878e-02           0.037          -0.020           0.999       2.950e-03          0.0408
 486       3.948e+00       5.491e+00       2.415e-02           0.024          -0.013           1.000       3.233e-03          0.0448
 487       3.774e+00       5.491e+00       2.778e-02           0.011          -0.006           1.000       3.329e-03          0.0521
 488       3.598e+00       5.491e+00       2.901e-02          -0.006           0.003           1.000       3.232e-03          0.0654
 489       3.430e+00       5.491e+00       2.700e-02          -0.033           0.018           0.999       2.949e-03          0.0626
 490       3.279e+00       5.491e+00       2.127e-02          -0.057           0.031           0.998       2.497e-03          0.0477
 491       3.155e+00       5.491e+00       1.363e-02          -0.077           0.042           0.996       1.898e-03          0.0154
 492       3.063e+00       5.491e+00       6.383e-03          -0.091           0.049           0.995       1.187e-03         -0.0688
 493       3.011e+00       5.491e+00       1.571e-03          -0.097           0.053           0.994       4.037e-04         -0.4580










