xflr5 v6.47

Flying_wing_2
T1-55.0 m/s-VLM2-Inviscid
QInf  =   55.000000 m/s
Alpha =    0.000000
Beta  =    0.000°
Phi   =    0.000°
Ctrl  =    0.000
CL    =    0.157655
Cy    =    0.000000
Cd    =    0.001099     ICd   =    0.001099     PCd   =    0.000000
Cl   = 1.04281e-16
Cm   =  -0.0227409
ICn   =   -0.000000     PCn   =   -0.000000 
XCP   =    1.081712     YCP   =   -0.000000     ZCP   =    0.025492  
XNP   =    0.000000
Bending = 5477.238097

Main Wing
  y-span        Chord      Ai         Cl        PCd          ICd        CmGeom    CmAirf@chord/4    XTrtop    XTrBot      XCP       BM
   -5.4906     1.4700    -1.363    0.030730    0.000000    0.000731   -0.013681   -0.013744     0.0000    0.0000    0.6977    0.0000
   -5.4531     1.4700    -1.271    0.052302    0.000000    0.001160   -0.022855   -0.023084     0.0000    0.0000    0.6914    0.0590
   -5.3783     1.4700    -1.149    0.073602    0.000000    0.001476   -0.030933   -0.031596     0.0000    0.0000    0.6793    0.7761
   -5.2668     1.4700    -1.019    0.092620    0.000000    0.001648   -0.036926   -0.038399     0.0000    0.0000    0.6646    3.9330
   -5.1194     1.4700    -0.893    0.108966    0.000000    0.001698   -0.040748   -0.043474     0.0000    0.0000    0.6490   12.9393
   -4.9369     1.4700    -0.777    0.122676    0.000000    0.001663   -0.042601   -0.047054     0.0000    0.0000    0.6336   33.0383
   -4.7208     1.4700    -0.675    0.134004    0.000000    0.001579   -0.042814   -0.049470     0.0000    0.0000    0.6192   71.2887
   -4.4723     1.4700    -0.590    0.143289    0.000000    0.001475   -0.041735   -0.051053     0.0000    0.0000    0.6063   136.3656
   -4.1934     1.4700    -0.520    0.150868    0.000000    0.001368   -0.039665   -0.052079     0.0000    0.0000    0.5952   238.2351
   -3.8858     1.4700    -0.463    0.157033    0.000000    0.001268   -0.036840   -0.052749     0.0000    0.0000    0.5859   387.7413
   -3.5516     1.4700    -0.417    0.162014    0.000000    0.001179   -0.033434   -0.053196     0.0000    0.0000    0.5783   596.1378
   -3.1932     1.4700    -0.380    0.165993    0.000000    0.001101   -0.029575   -0.053501     0.0000    0.0000    0.5723   874.5869
   -2.8130     1.4700    -0.350    0.169106    0.000000    0.001034   -0.025364   -0.053715     0.0000    0.0000    0.5676   1233.6488
   -2.4135     1.4700    -0.326    0.171454    0.000000    0.000976   -0.020888   -0.053868     0.0000    0.0000    0.5642   1682.7796
   -1.9976     1.4700    -0.307    0.173107    0.000000    0.000928   -0.016231   -0.053982     0.0000    0.0000    0.5618   2229.8569
   -1.5680     1.4700    -0.291    0.174097    0.000000    0.000884   -0.011481   -0.054073     0.0000    0.0000    0.5606   2880.7473
   -1.1277     1.4700    -0.277    0.174415    0.000000    0.000842   -0.006749   -0.054168     0.0000    0.0000    0.5606   3638.9258
   -0.6797     1.4700    -0.259    0.174009    0.000000    0.000786   -0.002198   -0.054327     0.0000    0.0000    0.5622   4505.1559
   -0.2271     1.4700    -0.220    0.172850    0.000000    0.000662    0.001858   -0.054763     0.0000    0.0000    0.5668   5477.2381
    0.2271     1.4700    -0.220    0.172850    0.000000    0.000662    0.001858   -0.054763     0.0000    0.0000    0.5668   5477.2381
    0.6797     1.4700    -0.259    0.174009    0.000000    0.000786   -0.002198   -0.054327     0.0000    0.0000    0.5622   4505.1559
    1.1277     1.4700    -0.277    0.174415    0.000000    0.000842   -0.006749   -0.054168     0.0000    0.0000    0.5606   3638.9258
    1.5680     1.4700    -0.291    0.174097    0.000000    0.000884   -0.011481   -0.054073     0.0000    0.0000    0.5606   2880.7473
    1.9976     1.4700    -0.307    0.173107    0.000000    0.000928   -0.016231   -0.053982     0.0000    0.0000    0.5618   2229.8569
    2.4135     1.4700    -0.326    0.171454    0.000000    0.000976   -0.020888   -0.053868     0.0000    0.0000    0.5642   1682.7796
    2.8130     1.4700    -0.350    0.169106    0.000000    0.001034   -0.025364   -0.053715     0.0000    0.0000    0.5676   1233.6488
    3.1932     1.4700    -0.380    0.165993    0.000000    0.001101   -0.029575   -0.053501     0.0000    0.0000    0.5723   874.5869
    3.5516     1.4700    -0.417    0.162014    0.000000    0.001179   -0.033434   -0.053196     0.0000    0.0000    0.5783   596.1378
    3.8858     1.4700    -0.463    0.157033    0.000000    0.001268   -0.036840   -0.052749     0.0000    0.0000    0.5859   387.7413
    4.1934     1.4700    -0.520    0.150868    0.000000    0.001368   -0.039665   -0.052079     0.0000    0.0000    0.5952   238.2351
    4.4723     1.4700    -0.590    0.143289    0.000000    0.001475   -0.041735   -0.051053     0.0000    0.0000    0.6063   136.3656
    4.7208     1.4700    -0.675    0.134004    0.000000    0.001579   -0.042814   -0.049470     0.0000    0.0000    0.6192   71.2887
    4.9369     1.4700    -0.777    0.122676    0.000000    0.001663   -0.042601   -0.047054     0.0000    0.0000    0.6336   33.0383
    5.1194     1.4700    -0.893    0.108966    0.000000    0.001698   -0.040748   -0.043474     0.0000    0.0000    0.6490   12.9393
    5.2668     1.4700    -1.019    0.092620    0.000000    0.001648   -0.036926   -0.038399     0.0000    0.0000    0.6646    3.9330
    5.3783     1.4700    -1.149    0.073602    0.000000    0.001476   -0.030933   -0.031596     0.0000    0.0000    0.6793    0.7761
    5.4531     1.4700    -1.271    0.052302    0.000000    0.001160   -0.022855   -0.023084     0.0000    0.0000    0.6914    0.0590
    5.4906     1.4700    -1.363    0.030730    0.000000    0.000731   -0.013681   -0.013744     0.0000    0.0000    0.6977    0.0000


Main Wing Cp Coefficients
 Panel     CtrlPt.x        CtrlPt.y        CtrlPt.z       Nx      Ny       Nz        Area       Cp
Main WingCp Coefficients
Strip 1
   0       1.964e+00      -5.491e+00       3.508e-04           0.066           0.006           0.998       4.021e-04          0.0217
   1       1.932e+00      -5.491e+00       2.388e-03           0.063           0.006           0.998       1.183e-03          0.0301
   2       1.860e+00      -5.491e+00       6.763e-03           0.056           0.005           0.998       1.894e-03          0.0372
   3       1.751e+00      -5.491e+00       1.261e-02           0.048           0.004           0.999       2.494e-03          0.0423
   4       1.612e+00      -5.491e+00       1.878e-02           0.037           0.003           0.999       2.949e-03          0.0462
   5       1.452e+00      -5.491e+00       2.415e-02           0.024           0.002           1.000       3.233e-03          0.0490
   6       1.278e+00      -5.491e+00       2.778e-02           0.011           0.001           1.000       3.329e-03          0.0550
   7       1.103e+00      -5.491e+00       2.901e-02          -0.006          -0.001           1.000       3.232e-03          0.0659
   8       9.343e-01      -5.491e+00       2.700e-02          -0.033          -0.003           0.999       2.949e-03          0.0580
   9       7.835e-01      -5.491e+00       2.127e-02          -0.057          -0.005           0.998       2.496e-03          0.0367
  10       6.588e-01      -5.491e+00       1.363e-02          -0.077          -0.007           0.997       1.896e-03         -0.0039
  11       5.676e-01      -5.491e+00       6.383e-03          -0.091          -0.008           0.996       1.185e-03         -0.1005
  12       5.152e-01      -5.491e+00       1.571e-03          -0.098          -0.009           0.995       4.032e-04         -0.4904
Strip 2
  13       1.960e+00      -5.453e+00       3.508e-04           0.066           0.006           0.998       1.204e-03          0.0322
  14       1.929e+00      -5.453e+00       2.388e-03           0.063           0.006           0.998       3.540e-03          0.0493
  15       1.856e+00      -5.453e+00       6.763e-03           0.056           0.005           0.998       5.669e-03          0.0627
  16       1.748e+00      -5.453e+00       1.261e-02           0.048           0.004           0.999       7.466e-03          0.0719
  17       1.609e+00      -5.453e+00       1.878e-02           0.037           0.003           0.999       8.828e-03          0.0789
  18       1.448e+00      -5.453e+00       2.415e-02           0.024           0.002           1.000       9.676e-03          0.0839
  19       1.275e+00      -5.453e+00       2.778e-02           0.011           0.001           1.000       9.964e-03          0.0940
  20       1.099e+00      -5.453e+00       2.901e-02          -0.006          -0.001           1.000       9.674e-03          0.1112
  21       9.309e-01      -5.453e+00       2.700e-02          -0.033          -0.003           0.999       8.826e-03          0.0971
  22       7.801e-01      -5.453e+00       2.127e-02          -0.057          -0.005           0.998       7.470e-03          0.0592
  23       6.554e-01      -5.453e+00       1.363e-02          -0.077          -0.007           0.997       5.676e-03         -0.0146
  24       5.642e-01      -5.453e+00       6.383e-03          -0.091          -0.008           0.996       3.548e-03         -0.1886
  25       5.118e-01      -5.453e+00       1.571e-03          -0.098          -0.009           0.995       1.207e-03         -0.6991
Strip 3
  26       1.954e+00      -5.378e+00       3.508e-04           0.066           0.006           0.998       1.997e-03          0.0408
  27       1.922e+00      -5.378e+00       2.388e-03           0.063           0.006           0.998       5.873e-03          0.0652
  28       1.850e+00      -5.378e+00       6.763e-03           0.056           0.005           0.998       9.405e-03          0.0858
  29       1.741e+00      -5.378e+00       1.261e-02           0.048           0.004           0.999       1.239e-02          0.1003
  30       1.602e+00      -5.378e+00       1.878e-02           0.037           0.003           0.999       1.465e-02          0.1110
  31       1.442e+00      -5.378e+00       2.415e-02           0.024           0.002           1.000       1.605e-02          0.1189
  32       1.268e+00      -5.378e+00       2.778e-02           0.011           0.001           1.000       1.653e-02          0.1324
  33       1.092e+00      -5.378e+00       2.901e-02          -0.006          -0.001           1.000       1.605e-02          0.1526
  34       9.241e-01      -5.378e+00       2.700e-02          -0.033          -0.003           0.999       1.464e-02          0.1306
  35       7.733e-01      -5.378e+00       2.127e-02          -0.057          -0.005           0.998       1.239e-02          0.0734
  36       6.486e-01      -5.378e+00       1.363e-02          -0.077          -0.007           0.997       9.418e-03         -0.0338
  37       5.574e-01      -5.378e+00       6.383e-03          -0.091          -0.008           0.996       5.886e-03         -0.2465
  38       5.050e-01      -5.378e+00       1.571e-03          -0.098          -0.009           0.995       2.002e-03         -0.8126
Strip 4
  39       1.943e+00      -5.267e+00       3.508e-04           0.066           0.006           0.998       2.776e-03          0.0477
  40       1.912e+00      -5.267e+00       2.388e-03           0.063           0.006           0.998       8.166e-03          0.0776
  41       1.839e+00      -5.267e+00       6.763e-03           0.056           0.005           0.998       1.308e-02          0.1045
  42       1.731e+00      -5.267e+00       1.261e-02           0.048           0.004           0.999       1.722e-02          0.1244
  43       1.592e+00      -5.267e+00       1.878e-02           0.037           0.003           0.999       2.036e-02          0.1391
  44       1.431e+00      -5.267e+00       2.415e-02           0.024           0.002           1.000       2.232e-02          0.1498
  45       1.258e+00      -5.267e+00       2.778e-02           0.011           0.001           1.000       2.298e-02          0.1654
  46       1.082e+00      -5.267e+00       2.901e-02          -0.006          -0.001           1.000       2.232e-02          0.1847
  47       9.139e-01      -5.267e+00       2.700e-02          -0.033          -0.003           0.999       2.036e-02          0.1542
  48       7.631e-01      -5.267e+00       2.127e-02          -0.057          -0.005           0.998       1.723e-02          0.0808
  49       6.385e-01      -5.267e+00       1.363e-02          -0.077          -0.007           0.997       1.309e-02         -0.0452
  50       5.473e-01      -5.267e+00       6.383e-03          -0.091          -0.008           0.996       8.184e-03         -0.2712
  51       4.948e-01      -5.267e+00       1.571e-03          -0.098          -0.009           0.995       2.784e-03         -0.8642
Strip 5
  52       1.930e+00      -5.119e+00       3.508e-04           0.066           0.006           0.998       3.537e-03          0.0531
  53       1.898e+00      -5.119e+00       2.388e-03           0.063           0.006           0.998       1.040e-02          0.0874
  54       1.826e+00      -5.119e+00       6.763e-03           0.056           0.005           0.998       1.666e-02          0.1191
  55       1.717e+00      -5.119e+00       1.261e-02           0.048           0.004           0.999       2.194e-02          0.1436
  56       1.579e+00      -5.119e+00       1.878e-02           0.037           0.003           0.999       2.594e-02          0.1620
  57       1.418e+00      -5.119e+00       2.415e-02           0.024           0.002           1.000       2.844e-02          0.1750
  58       1.245e+00      -5.119e+00       2.778e-02           0.011           0.001           1.000       2.928e-02          0.1912
  59       1.069e+00      -5.119e+00       2.901e-02          -0.006          -0.001           1.000       2.843e-02          0.2080
  60       9.005e-01      -5.119e+00       2.700e-02          -0.033          -0.003           0.999       2.594e-02          0.1704
  61       7.497e-01      -5.119e+00       2.127e-02          -0.057          -0.005           0.998       2.195e-02          0.0873
  62       6.251e-01      -5.119e+00       1.363e-02          -0.077          -0.007           0.997       1.668e-02         -0.0463
  63       5.339e-01      -5.119e+00       6.383e-03          -0.091          -0.008           0.996       1.043e-02         -0.2762
  64       4.814e-01      -5.119e+00       1.571e-03          -0.098          -0.009           0.995       3.546e-03         -0.8753
Strip 6
  65       1.913e+00      -4.937e+00       3.508e-04           0.066           0.006           0.998       4.273e-03          0.0573
  66       1.882e+00      -4.937e+00       2.388e-03           0.063           0.006           0.998       1.257e-02          0.0949
  67       1.809e+00      -4.937e+00       6.763e-03           0.056           0.005           0.998       2.013e-02          0.1304
  68       1.701e+00      -4.937e+00       1.261e-02           0.048           0.004           0.999       2.651e-02          0.1584
  69       1.562e+00      -4.937e+00       1.878e-02           0.037           0.003           0.999       3.134e-02          0.1796
  70       1.401e+00      -4.937e+00       2.415e-02           0.024           0.002           1.000       3.436e-02          0.1943
  71       1.228e+00      -4.937e+00       2.778e-02           0.011           0.001           1.000       3.538e-02          0.2103
  72       1.052e+00      -4.937e+00       2.901e-02          -0.006          -0.001           1.000       3.435e-02          0.2247
  73       8.840e-01      -4.937e+00       2.700e-02          -0.033          -0.003           0.999       3.134e-02          0.1826
  74       7.331e-01      -4.937e+00       2.127e-02          -0.057          -0.005           0.998       2.652e-02          0.0951
  75       6.085e-01      -4.937e+00       1.363e-02          -0.077          -0.007           0.997       2.016e-02         -0.0410
  76       5.173e-01      -4.937e+00       6.383e-03          -0.091          -0.008           0.996       1.260e-02         -0.2701
  77       4.648e-01      -4.937e+00       1.571e-03          -0.098          -0.009           0.995       4.285e-03         -0.8618
Strip 7
  78       1.894e+00      -4.721e+00       3.508e-04           0.066           0.006           0.998       4.981e-03          0.0606
  79       1.862e+00      -4.721e+00       2.388e-03           0.063           0.006           0.998       1.465e-02          0.1006
  80       1.790e+00      -4.721e+00       6.763e-03           0.056           0.005           0.998       2.346e-02          0.1388
  81       1.681e+00      -4.721e+00       1.261e-02           0.048           0.004           0.999       3.090e-02          0.1693
  82       1.542e+00      -4.721e+00       1.878e-02           0.037           0.003           0.999       3.653e-02          0.1926
  83       1.382e+00      -4.721e+00       2.415e-02           0.024           0.002           1.000       4.004e-02          0.2083
  84       1.208e+00      -4.721e+00       2.778e-02           0.011           0.001           1.000       4.123e-02          0.2241
  85       1.033e+00      -4.721e+00       2.901e-02          -0.006          -0.001           1.000       4.003e-02          0.2370
  86       8.643e-01      -4.721e+00       2.700e-02          -0.033          -0.003           0.999       3.653e-02          0.1928
  87       7.135e-01      -4.721e+00       2.127e-02          -0.057          -0.005           0.998       3.091e-02          0.1037
  88       5.888e-01      -4.721e+00       1.363e-02          -0.077          -0.007           0.997       2.349e-02         -0.0324
  89       4.976e-01      -4.721e+00       6.383e-03          -0.091          -0.008           0.996       1.468e-02         -0.2582
  90       4.452e-01      -4.721e+00       1.571e-03          -0.098          -0.009           0.995       4.994e-03         -0.8350
Strip 8
  91       1.871e+00      -4.472e+00       3.508e-04           0.066           0.006           0.998       5.654e-03          0.0629
  92       1.840e+00      -4.472e+00       2.388e-03           0.063           0.006           0.998       1.663e-02          0.1047
  93       1.767e+00      -4.472e+00       6.763e-03           0.056           0.005           0.998       2.663e-02          0.1448
  94       1.659e+00      -4.472e+00       1.261e-02           0.048           0.004           0.999       3.507e-02          0.1772
  95       1.520e+00      -4.472e+00       1.878e-02           0.037           0.003           0.999       4.147e-02          0.2018
  96       1.359e+00      -4.472e+00       2.415e-02           0.024           0.002           1.000       4.546e-02          0.2183
  97       1.186e+00      -4.472e+00       2.778e-02           0.011           0.001           1.000       4.681e-02          0.2342
  98       1.010e+00      -4.472e+00       2.901e-02          -0.006          -0.001           1.000       4.544e-02          0.2465
  99       8.417e-01      -4.472e+00       2.700e-02          -0.033          -0.003           0.999       4.146e-02          0.2015
 100       6.909e-01      -4.472e+00       2.127e-02          -0.057          -0.005           0.998       3.509e-02          0.1122
 101       5.663e-01      -4.472e+00       1.363e-02          -0.077          -0.007           0.997       2.667e-02         -0.0226
 102       4.751e-01      -4.472e+00       6.383e-03          -0.091          -0.008           0.996       1.667e-02         -0.2440
 103       4.226e-01      -4.472e+00       1.571e-03          -0.098          -0.009           0.995       5.669e-03         -0.8026
Strip 9
 104       1.846e+00      -4.193e+00       3.508e-04           0.066           0.006           0.998       6.288e-03          0.0646
 105       1.814e+00      -4.193e+00       2.388e-03           0.063           0.006           0.998       1.850e-02          0.1077
 106       1.742e+00      -4.193e+00       6.763e-03           0.056           0.005           0.998       2.962e-02          0.1492
 107       1.633e+00      -4.193e+00       1.261e-02           0.048           0.004           0.999       3.901e-02          0.1828
 108       1.495e+00      -4.193e+00       1.878e-02           0.037           0.003           0.999       4.613e-02          0.2085
 109       1.334e+00      -4.193e+00       2.415e-02           0.024           0.002           1.000       5.056e-02          0.2256
 110       1.161e+00      -4.193e+00       2.778e-02           0.011           0.001           1.000       5.206e-02          0.2417
 111       9.846e-01      -4.193e+00       2.901e-02          -0.006          -0.001           1.000       5.054e-02          0.2539
 112       8.164e-01      -4.193e+00       2.700e-02          -0.033          -0.003           0.999       4.612e-02          0.2090
 113       6.655e-01      -4.193e+00       2.127e-02          -0.057          -0.005           0.998       3.903e-02          0.1202
 114       5.409e-01      -4.193e+00       1.363e-02          -0.077          -0.007           0.997       2.966e-02         -0.0130
 115       4.497e-01      -4.193e+00       6.383e-03          -0.091          -0.008           0.996       1.854e-02         -0.2296
 116       3.972e-01      -4.193e+00       1.571e-03          -0.098          -0.009           0.995       6.305e-03         -0.7695
Strip 10
 117       1.818e+00      -3.886e+00       3.508e-04           0.066           0.006           0.998       6.880e-03          0.0659
 118       1.786e+00      -3.886e+00       2.388e-03           0.063           0.006           0.998       2.024e-02          0.1099
 119       1.714e+00      -3.886e+00       6.763e-03           0.056           0.005           0.998       3.241e-02          0.1523
 120       1.605e+00      -3.886e+00       1.261e-02           0.048           0.004           0.999       4.268e-02          0.1869
 121       1.467e+00      -3.886e+00       1.878e-02           0.037           0.003           0.999       5.046e-02          0.2133
 122       1.306e+00      -3.886e+00       2.415e-02           0.024           0.002           1.000       5.532e-02          0.2310
 123       1.133e+00      -3.886e+00       2.778e-02           0.011           0.001           1.000       5.696e-02          0.2474
 124       9.566e-01      -3.886e+00       2.901e-02          -0.006          -0.001           1.000       5.530e-02          0.2599
 125       7.884e-01      -3.886e+00       2.700e-02          -0.033          -0.003           0.999       5.046e-02          0.2154
 126       6.376e-01      -3.886e+00       2.127e-02          -0.057          -0.005           0.998       4.270e-02          0.1273
 127       5.129e-01      -3.886e+00       1.363e-02          -0.077          -0.007           0.997       3.245e-02         -0.0042
 128       4.217e-01      -3.886e+00       6.383e-03          -0.091          -0.008           0.996       2.028e-02         -0.2163
 129       3.693e-01      -3.886e+00       1.571e-03          -0.098          -0.009           0.995       6.898e-03         -0.7384
Strip 11
 130       1.788e+00      -3.552e+00       3.508e-04           0.066           0.006           0.998       7.425e-03          0.0668
 131       1.756e+00      -3.552e+00       2.388e-03           0.063           0.006           0.998       2.184e-02          0.1114
 132       1.684e+00      -3.552e+00       6.763e-03           0.056           0.005           0.998       3.497e-02          0.1546
 133       1.575e+00      -3.552e+00       1.261e-02           0.048           0.004           0.999       4.606e-02          0.1898
 134       1.436e+00      -3.552e+00       1.878e-02           0.037           0.003           0.999       5.446e-02          0.2168
 135       1.275e+00      -3.552e+00       2.415e-02           0.024           0.002           1.000       5.969e-02          0.2350
 136       1.102e+00      -3.552e+00       2.778e-02           0.011           0.001           1.000       6.147e-02          0.2518
 137       9.263e-01      -3.552e+00       2.901e-02          -0.006          -0.001           1.000       5.968e-02          0.2647
 138       7.580e-01      -3.552e+00       2.700e-02          -0.033          -0.003           0.999       5.445e-02          0.2206
 139       6.072e-01      -3.552e+00       2.127e-02          -0.057          -0.005           0.998       4.608e-02          0.1333
 140       4.826e-01      -3.552e+00       1.363e-02          -0.077          -0.007           0.997       3.502e-02          0.0034
 141       3.914e-01      -3.552e+00       6.383e-03          -0.091          -0.008           0.996       2.189e-02         -0.2045
 142       3.389e-01      -3.552e+00       1.571e-03          -0.098          -0.009           0.995       7.444e-03         -0.7108
Strip 12
 143       1.755e+00      -3.193e+00       3.508e-04           0.066           0.006           0.998       7.919e-03          0.0675
 144       1.723e+00      -3.193e+00       2.388e-03           0.063           0.006           0.998       2.329e-02          0.1126
 145       1.651e+00      -3.193e+00       6.763e-03           0.056           0.005           0.998       3.730e-02          0.1563
 146       1.542e+00      -3.193e+00       1.261e-02           0.048           0.004           0.999       4.912e-02          0.1920
 147       1.404e+00      -3.193e+00       1.878e-02           0.037           0.003           0.999       5.808e-02          0.2195
 148       1.243e+00      -3.193e+00       2.415e-02           0.024           0.002           1.000       6.367e-02          0.2380
 149       1.070e+00      -3.193e+00       2.778e-02           0.011           0.001           1.000       6.556e-02          0.2552
 150       8.937e-01      -3.193e+00       2.901e-02          -0.006          -0.001           1.000       6.365e-02          0.2685
 151       7.254e-01      -3.193e+00       2.700e-02          -0.033          -0.003           0.999       5.807e-02          0.2248
 152       5.746e-01      -3.193e+00       2.127e-02          -0.057          -0.005           0.998       4.915e-02          0.1382
 153       4.500e-01      -3.193e+00       1.363e-02          -0.077          -0.007           0.997       3.735e-02          0.0098
 154       3.588e-01      -3.193e+00       6.383e-03          -0.091          -0.008           0.996       2.334e-02         -0.1945
 155       3.063e-01      -3.193e+00       1.571e-03          -0.098          -0.009           0.995       7.940e-03         -0.6874
Strip 13
 156       1.720e+00      -2.813e+00       3.508e-04           0.066           0.006           0.998       8.358e-03          0.0679
 157       1.689e+00      -2.813e+00       2.388e-03           0.063           0.006           0.998       2.458e-02          0.1135
 158       1.616e+00      -2.813e+00       6.763e-03           0.056           0.005           0.998       3.937e-02          0.1576
 159       1.508e+00      -2.813e+00       1.261e-02           0.048           0.004           0.999       5.185e-02          0.1937
 160       1.369e+00      -2.813e+00       1.878e-02           0.037           0.003           0.999       6.131e-02          0.2215
 161       1.208e+00      -2.813e+00       2.415e-02           0.024           0.002           1.000       6.720e-02          0.2403
 162       1.035e+00      -2.813e+00       2.778e-02           0.011           0.001           1.000       6.920e-02          0.2578
 163       8.591e-01      -2.813e+00       2.901e-02          -0.006          -0.001           1.000       6.718e-02          0.2714
 164       6.909e-01      -2.813e+00       2.700e-02          -0.033          -0.003           0.999       6.130e-02          0.2281
 165       5.400e-01      -2.813e+00       2.127e-02          -0.057          -0.005           0.998       5.188e-02          0.1422
 166       4.154e-01      -2.813e+00       1.363e-02          -0.077          -0.007           0.997       3.942e-02          0.0150
 167       3.242e-01      -2.813e+00       6.383e-03          -0.091          -0.008           0.996       2.464e-02         -0.1864
 168       2.717e-01      -2.813e+00       1.571e-03          -0.098          -0.009           0.995       8.381e-03         -0.6684
Strip 14
 169       1.684e+00      -2.414e+00       3.508e-04           0.066           0.006           0.998       8.741e-03          0.0683
 170       1.652e+00      -2.414e+00       2.388e-03           0.063           0.006           0.998       2.571e-02          0.1141
 171       1.580e+00      -2.414e+00       6.763e-03           0.056           0.005           0.998       4.117e-02          0.1585
 172       1.471e+00      -2.414e+00       1.261e-02           0.048           0.004           0.999       5.423e-02          0.1949
 173       1.333e+00      -2.414e+00       1.878e-02           0.037           0.003           0.999       6.412e-02          0.2229
 174       1.172e+00      -2.414e+00       2.415e-02           0.024           0.002           1.000       7.028e-02          0.2421
 175       9.987e-01      -2.414e+00       2.778e-02           0.011           0.001           1.000       7.237e-02          0.2598
 176       8.228e-01      -2.414e+00       2.901e-02          -0.006          -0.001           1.000       7.026e-02          0.2736
 177       6.546e-01      -2.414e+00       2.700e-02          -0.033          -0.003           0.999       6.411e-02          0.2306
 178       5.037e-01      -2.414e+00       2.127e-02          -0.057          -0.005           0.998       5.425e-02          0.1452
 179       3.791e-01      -2.414e+00       1.363e-02          -0.077          -0.007           0.997       4.123e-02          0.0189
 180       2.879e-01      -2.414e+00       6.383e-03          -0.091          -0.008           0.996       2.577e-02         -0.1802
 181       2.354e-01      -2.414e+00       1.571e-03          -0.098          -0.009           0.995       8.764e-03         -0.6538
Strip 15
 182       1.646e+00      -1.998e+00       3.508e-04           0.066           0.006           0.998       9.064e-03          0.0686
 183       1.615e+00      -1.998e+00       2.388e-03           0.063           0.006           0.998       2.666e-02          0.1146
 184       1.542e+00      -1.998e+00       6.763e-03           0.056           0.005           0.998       4.269e-02          0.1592
 185       1.434e+00      -1.998e+00       1.261e-02           0.048           0.004           0.999       5.623e-02          0.1958
 186       1.295e+00      -1.998e+00       1.878e-02           0.037           0.003           0.999       6.649e-02          0.2240
 187       1.134e+00      -1.998e+00       2.415e-02           0.024           0.002           1.000       7.288e-02          0.2433
 188       9.609e-01      -1.998e+00       2.778e-02           0.011           0.001           1.000       7.504e-02          0.2612
 189       7.850e-01      -1.998e+00       2.901e-02          -0.006          -0.001           1.000       7.286e-02          0.2751
 190       6.167e-01      -1.998e+00       2.700e-02          -0.033          -0.003           0.999       6.648e-02          0.2324
 191       4.659e-01      -1.998e+00       2.127e-02          -0.057          -0.005           0.998       5.626e-02          0.1473
 192       3.413e-01      -1.998e+00       1.363e-02          -0.077          -0.007           0.997       4.275e-02          0.0216
 193       2.501e-01      -1.998e+00       6.383e-03          -0.091          -0.008           0.996       2.672e-02         -0.1759
 194       1.976e-01      -1.998e+00       1.571e-03          -0.098          -0.009           0.995       9.088e-03         -0.6437
Strip 16
 195       1.607e+00      -1.568e+00       3.508e-04           0.066           0.006           0.998       9.325e-03          0.0688
 196       1.575e+00      -1.568e+00       2.388e-03           0.063           0.006           0.998       2.743e-02          0.1149
 197       1.503e+00      -1.568e+00       6.763e-03           0.056           0.005           0.998       4.392e-02          0.1597
 198       1.395e+00      -1.568e+00       1.261e-02           0.048           0.004           0.999       5.785e-02          0.1964
 199       1.256e+00      -1.568e+00       1.878e-02           0.037           0.003           0.999       6.840e-02          0.2247
 200       1.095e+00      -1.568e+00       2.415e-02           0.024           0.002           1.000       7.498e-02          0.2441
 201       9.218e-01      -1.568e+00       2.778e-02           0.011           0.001           1.000       7.720e-02          0.2620
 202       7.459e-01      -1.568e+00       2.901e-02          -0.006          -0.001           1.000       7.496e-02          0.2761
 203       5.777e-01      -1.568e+00       2.700e-02          -0.033          -0.003           0.999       6.839e-02          0.2334
 204       4.269e-01      -1.568e+00       2.127e-02          -0.057          -0.005           0.998       5.788e-02          0.1485
 205       3.022e-01      -1.568e+00       1.363e-02          -0.077          -0.007           0.997       4.398e-02          0.0231
 206       2.110e-01      -1.568e+00       6.383e-03          -0.091          -0.008           0.996       2.749e-02         -0.1736
 207       1.586e-01      -1.568e+00       1.571e-03          -0.098          -0.009           0.995       9.350e-03         -0.6382
Strip 17
 208       1.567e+00      -1.128e+00       3.508e-04           0.066           0.006           0.998       9.523e-03          0.0689
 209       1.535e+00      -1.128e+00       2.388e-03           0.063           0.006           0.998       2.801e-02          0.1152
 210       1.463e+00      -1.128e+00       6.763e-03           0.056           0.005           0.998       4.485e-02          0.1600
 211       1.355e+00      -1.128e+00       1.261e-02           0.048           0.004           0.999       5.907e-02          0.1968
 212       1.216e+00      -1.128e+00       1.878e-02           0.037           0.003           0.999       6.985e-02          0.2252
 213       1.055e+00      -1.128e+00       2.415e-02           0.024           0.002           1.000       7.656e-02          0.2445
 214       8.818e-01      -1.128e+00       2.778e-02           0.011           0.001           1.000       7.884e-02          0.2624
 215       7.059e-01      -1.128e+00       2.901e-02          -0.006          -0.001           1.000       7.654e-02          0.2764
 216       5.377e-01      -1.128e+00       2.700e-02          -0.033          -0.003           0.999       6.984e-02          0.2337
 217       3.868e-01      -1.128e+00       2.127e-02          -0.057          -0.005           0.998       5.910e-02          0.1487
 218       2.622e-01      -1.128e+00       1.363e-02          -0.077          -0.007           0.997       4.492e-02          0.0233
 219       1.710e-01      -1.128e+00       6.383e-03          -0.091          -0.008           0.996       2.807e-02         -0.1734
 220       1.185e-01      -1.128e+00       1.571e-03          -0.098          -0.009           0.995       9.548e-03         -0.6379
Strip 18
 221       1.526e+00      -6.797e-01       3.508e-04           0.066           0.006           0.998       9.655e-03          0.0691
 222       1.495e+00      -6.797e-01       2.388e-03           0.063           0.006           0.998       2.840e-02          0.1155
 223       1.422e+00      -6.797e-01       6.763e-03           0.056           0.005           0.998       4.548e-02          0.1605
 224       1.314e+00      -6.797e-01       1.261e-02           0.048           0.004           0.999       5.989e-02          0.1973
 225       1.175e+00      -6.797e-01       1.878e-02           0.037           0.003           0.999       7.082e-02          0.2256
 226       1.014e+00      -6.797e-01       2.415e-02           0.024           0.002           1.000       7.763e-02          0.2448
 227       8.411e-01      -6.797e-01       2.778e-02           0.011           0.001           1.000       7.993e-02          0.2623
 228       6.652e-01      -6.797e-01       2.901e-02          -0.006          -0.001           1.000       7.761e-02          0.2759
 229       4.969e-01      -6.797e-01       2.700e-02          -0.033          -0.003           0.999       7.081e-02          0.2329
 230       3.461e-01      -6.797e-01       2.127e-02          -0.057          -0.005           0.998       5.993e-02          0.1475
 231       2.215e-01      -6.797e-01       1.363e-02          -0.077          -0.007           0.997       4.554e-02          0.0216
 232       1.303e-01      -6.797e-01       6.383e-03          -0.091          -0.008           0.996       2.846e-02         -0.1761
 233       7.781e-02      -6.797e-01       1.571e-03          -0.098          -0.009           0.995       9.681e-03         -0.6442
Strip 19
 234       1.485e+00      -2.271e-01       3.508e-04           0.066           0.006           0.998       9.721e-03          0.0699
 235       1.454e+00      -2.271e-01       2.388e-03           0.063           0.006           0.998       2.859e-02          0.1167
 236       1.381e+00      -2.271e-01       6.763e-03           0.056           0.005           0.998       4.579e-02          0.1620
 237       1.273e+00      -2.271e-01       1.261e-02           0.048           0.004           0.999       6.031e-02          0.1988
 238       1.134e+00      -2.271e-01       1.878e-02           0.037           0.003           0.999       7.131e-02          0.2268
 239       9.733e-01      -2.271e-01       2.415e-02           0.024           0.002           1.000       7.816e-02          0.2452
 240       7.999e-01      -2.271e-01       2.778e-02           0.011           0.001           1.000       8.048e-02          0.2618
 241       6.240e-01      -2.271e-01       2.901e-02          -0.006          -0.001           1.000       7.814e-02          0.2743
 242       4.558e-01      -2.271e-01       2.700e-02          -0.033          -0.003           0.999       7.130e-02          0.2302
 243       3.050e-01      -2.271e-01       2.127e-02          -0.057          -0.005           0.998       6.034e-02          0.1440
 244       1.803e-01      -2.271e-01       1.363e-02          -0.077          -0.007           0.997       4.585e-02          0.0172
 245       8.913e-02      -2.271e-01       6.383e-03          -0.091          -0.008           0.996       2.866e-02         -0.1826
 246       3.666e-02      -2.271e-01       1.571e-03          -0.098          -0.009           0.995       9.747e-03         -0.6590
Strip 20
 247       1.485e+00       2.271e-01       3.508e-04           0.066          -0.006           0.998       9.721e-03          0.0699
 248       1.454e+00       2.271e-01       2.388e-03           0.063          -0.006           0.998       2.859e-02          0.1167
 249       1.381e+00       2.271e-01       6.763e-03           0.056          -0.005           0.998       4.579e-02          0.1620
 250       1.273e+00       2.271e-01       1.261e-02           0.048          -0.004           0.999       6.031e-02          0.1988
 251       1.134e+00       2.271e-01       1.878e-02           0.037          -0.003           0.999       7.131e-02          0.2268
 252       9.733e-01       2.271e-01       2.415e-02           0.024          -0.002           1.000       7.816e-02          0.2452
 253       7.999e-01       2.271e-01       2.778e-02           0.011          -0.001           1.000       8.048e-02          0.2618
 254       6.240e-01       2.271e-01       2.901e-02          -0.006           0.001           1.000       7.814e-02          0.2743
 255       4.558e-01       2.271e-01       2.700e-02          -0.033           0.003           0.999       7.130e-02          0.2302
 256       3.050e-01       2.271e-01       2.127e-02          -0.057           0.005           0.998       6.034e-02          0.1440
 257       1.803e-01       2.271e-01       1.363e-02          -0.077           0.007           0.997       4.585e-02          0.0172
 258       8.913e-02       2.271e-01       6.383e-03          -0.091           0.008           0.996       2.866e-02         -0.1826
 259       3.666e-02       2.271e-01       1.571e-03          -0.098           0.009           0.995       9.747e-03         -0.6590
Strip 21
 260       1.526e+00       6.797e-01       3.508e-04           0.066          -0.006           0.998       9.655e-03          0.0691
 261       1.495e+00       6.797e-01       2.388e-03           0.063          -0.006           0.998       2.840e-02          0.1155
 262       1.422e+00       6.797e-01       6.763e-03           0.056          -0.005           0.998       4.548e-02          0.1605
 263       1.314e+00       6.797e-01       1.261e-02           0.048          -0.004           0.999       5.989e-02          0.1973
 264       1.175e+00       6.797e-01       1.878e-02           0.037          -0.003           0.999       7.082e-02          0.2256
 265       1.014e+00       6.797e-01       2.415e-02           0.024          -0.002           1.000       7.763e-02          0.2448
 266       8.411e-01       6.797e-01       2.778e-02           0.011          -0.001           1.000       7.993e-02          0.2623
 267       6.652e-01       6.797e-01       2.901e-02          -0.006           0.001           1.000       7.761e-02          0.2759
 268       4.969e-01       6.797e-01       2.700e-02          -0.033           0.003           0.999       7.081e-02          0.2329
 269       3.461e-01       6.797e-01       2.127e-02          -0.057           0.005           0.998       5.993e-02          0.1475
 270       2.215e-01       6.797e-01       1.363e-02          -0.077           0.007           0.997       4.554e-02          0.0216
 271       1.303e-01       6.797e-01       6.383e-03          -0.091           0.008           0.996       2.846e-02         -0.1761
 272       7.781e-02       6.797e-01       1.571e-03          -0.098           0.009           0.995       9.681e-03         -0.6442
Strip 22
 273       1.567e+00       1.128e+00       3.508e-04           0.066          -0.006           0.998       9.523e-03          0.0689
 274       1.535e+00       1.128e+00       2.388e-03           0.063          -0.006           0.998       2.801e-02          0.1152
 275       1.463e+00       1.128e+00       6.763e-03           0.056          -0.005           0.998       4.485e-02          0.1600
 276       1.355e+00       1.128e+00       1.261e-02           0.048          -0.004           0.999       5.907e-02          0.1968
 277       1.216e+00       1.128e+00       1.878e-02           0.037          -0.003           0.999       6.985e-02          0.2252
 278       1.055e+00       1.128e+00       2.415e-02           0.024          -0.002           1.000       7.656e-02          0.2445
 279       8.818e-01       1.128e+00       2.778e-02           0.011          -0.001           1.000       7.884e-02          0.2624
 280       7.059e-01       1.128e+00       2.901e-02          -0.006           0.001           1.000       7.654e-02          0.2764
 281       5.377e-01       1.128e+00       2.700e-02          -0.033           0.003           0.999       6.984e-02          0.2337
 282       3.868e-01       1.128e+00       2.127e-02          -0.057           0.005           0.998       5.910e-02          0.1487
 283       2.622e-01       1.128e+00       1.363e-02          -0.077           0.007           0.997       4.492e-02          0.0233
 284       1.710e-01       1.128e+00       6.383e-03          -0.091           0.008           0.996       2.807e-02         -0.1734
 285       1.185e-01       1.128e+00       1.571e-03          -0.098           0.009           0.995       9.548e-03         -0.6379
Strip 23
 286       1.607e+00       1.568e+00       3.508e-04           0.066          -0.006           0.998       9.325e-03          0.0688
 287       1.575e+00       1.568e+00       2.388e-03           0.063          -0.006           0.998       2.743e-02          0.1149
 288       1.503e+00       1.568e+00       6.763e-03           0.056          -0.005           0.998       4.392e-02          0.1597
 289       1.395e+00       1.568e+00       1.261e-02           0.048          -0.004           0.999       5.785e-02          0.1964
 290       1.256e+00       1.568e+00       1.878e-02           0.037          -0.003           0.999       6.840e-02          0.2247
 291       1.095e+00       1.568e+00       2.415e-02           0.024          -0.002           1.000       7.498e-02          0.2441
 292       9.218e-01       1.568e+00       2.778e-02           0.011          -0.001           1.000       7.720e-02          0.2620
 293       7.459e-01       1.568e+00       2.901e-02          -0.006           0.001           1.000       7.496e-02          0.2761
 294       5.777e-01       1.568e+00       2.700e-02          -0.033           0.003           0.999       6.839e-02          0.2334
 295       4.269e-01       1.568e+00       2.127e-02          -0.057           0.005           0.998       5.788e-02          0.1485
 296       3.022e-01       1.568e+00       1.363e-02          -0.077           0.007           0.997       4.398e-02          0.0231
 297       2.110e-01       1.568e+00       6.383e-03          -0.091           0.008           0.996       2.749e-02         -0.1736
 298       1.586e-01       1.568e+00       1.571e-03          -0.098           0.009           0.995       9.350e-03         -0.6382
Strip 24
 299       1.646e+00       1.998e+00       3.508e-04           0.066          -0.006           0.998       9.064e-03          0.0686
 300       1.615e+00       1.998e+00       2.388e-03           0.063          -0.006           0.998       2.666e-02          0.1146
 301       1.542e+00       1.998e+00       6.763e-03           0.056          -0.005           0.998       4.269e-02          0.1592
 302       1.434e+00       1.998e+00       1.261e-02           0.048          -0.004           0.999       5.623e-02          0.1958
 303       1.295e+00       1.998e+00       1.878e-02           0.037          -0.003           0.999       6.649e-02          0.2240
 304       1.134e+00       1.998e+00       2.415e-02           0.024          -0.002           1.000       7.288e-02          0.2433
 305       9.609e-01       1.998e+00       2.778e-02           0.011          -0.001           1.000       7.504e-02          0.2612
 306       7.850e-01       1.998e+00       2.901e-02          -0.006           0.001           1.000       7.286e-02          0.2751
 307       6.167e-01       1.998e+00       2.700e-02          -0.033           0.003           0.999       6.648e-02          0.2324
 308       4.659e-01       1.998e+00       2.127e-02          -0.057           0.005           0.998       5.626e-02          0.1473
 309       3.413e-01       1.998e+00       1.363e-02          -0.077           0.007           0.997       4.275e-02          0.0216
 310       2.501e-01       1.998e+00       6.383e-03          -0.091           0.008           0.996       2.672e-02         -0.1759
 311       1.976e-01       1.998e+00       1.571e-03          -0.098           0.009           0.995       9.088e-03         -0.6437
Strip 25
 312       1.684e+00       2.414e+00       3.508e-04           0.066          -0.006           0.998       8.741e-03          0.0683
 313       1.652e+00       2.414e+00       2.388e-03           0.063          -0.006           0.998       2.571e-02          0.1141
 314       1.580e+00       2.414e+00       6.763e-03           0.056          -0.005           0.998       4.117e-02          0.1585
 315       1.471e+00       2.414e+00       1.261e-02           0.048          -0.004           0.999       5.423e-02          0.1949
 316       1.333e+00       2.414e+00       1.878e-02           0.037          -0.003           0.999       6.412e-02          0.2229
 317       1.172e+00       2.414e+00       2.415e-02           0.024          -0.002           1.000       7.028e-02          0.2421
 318       9.987e-01       2.414e+00       2.778e-02           0.011          -0.001           1.000       7.237e-02          0.2598
 319       8.228e-01       2.414e+00       2.901e-02          -0.006           0.001           1.000       7.026e-02          0.2736
 320       6.546e-01       2.414e+00       2.700e-02          -0.033           0.003           0.999       6.411e-02          0.2306
 321       5.037e-01       2.414e+00       2.127e-02          -0.057           0.005           0.998       5.425e-02          0.1452
 322       3.791e-01       2.414e+00       1.363e-02          -0.077           0.007           0.997       4.123e-02          0.0189
 323       2.879e-01       2.414e+00       6.383e-03          -0.091           0.008           0.996       2.577e-02         -0.1802
 324       2.354e-01       2.414e+00       1.571e-03          -0.098           0.009           0.995       8.764e-03         -0.6538
Strip 26
 325       1.720e+00       2.813e+00       3.508e-04           0.066          -0.006           0.998       8.358e-03          0.0679
 326       1.689e+00       2.813e+00       2.388e-03           0.063          -0.006           0.998       2.458e-02          0.1135
 327       1.616e+00       2.813e+00       6.763e-03           0.056          -0.005           0.998       3.937e-02          0.1576
 328       1.508e+00       2.813e+00       1.261e-02           0.048          -0.004           0.999       5.185e-02          0.1937
 329       1.369e+00       2.813e+00       1.878e-02           0.037          -0.003           0.999       6.131e-02          0.2215
 330       1.208e+00       2.813e+00       2.415e-02           0.024          -0.002           1.000       6.720e-02          0.2403
 331       1.035e+00       2.813e+00       2.778e-02           0.011          -0.001           1.000       6.920e-02          0.2578
 332       8.591e-01       2.813e+00       2.901e-02          -0.006           0.001           1.000       6.718e-02          0.2714
 333       6.909e-01       2.813e+00       2.700e-02          -0.033           0.003           0.999       6.130e-02          0.2281
 334       5.400e-01       2.813e+00       2.127e-02          -0.057           0.005           0.998       5.188e-02          0.1422
 335       4.154e-01       2.813e+00       1.363e-02          -0.077           0.007           0.997       3.942e-02          0.0150
 336       3.242e-01       2.813e+00       6.383e-03          -0.091           0.008           0.996       2.464e-02         -0.1864
 337       2.717e-01       2.813e+00       1.571e-03          -0.098           0.009           0.995       8.381e-03         -0.6684
Strip 27
 338       1.755e+00       3.193e+00       3.508e-04           0.066          -0.006           0.998       7.919e-03          0.0675
 339       1.723e+00       3.193e+00       2.388e-03           0.063          -0.006           0.998       2.329e-02          0.1126
 340       1.651e+00       3.193e+00       6.763e-03           0.056          -0.005           0.998       3.730e-02          0.1563
 341       1.542e+00       3.193e+00       1.261e-02           0.048          -0.004           0.999       4.912e-02          0.1920
 342       1.404e+00       3.193e+00       1.878e-02           0.037          -0.003           0.999       5.808e-02          0.2195
 343       1.243e+00       3.193e+00       2.415e-02           0.024          -0.002           1.000       6.367e-02          0.2380
 344       1.070e+00       3.193e+00       2.778e-02           0.011          -0.001           1.000       6.556e-02          0.2552
 345       8.937e-01       3.193e+00       2.901e-02          -0.006           0.001           1.000       6.365e-02          0.2685
 346       7.254e-01       3.193e+00       2.700e-02          -0.033           0.003           0.999       5.807e-02          0.2248
 347       5.746e-01       3.193e+00       2.127e-02          -0.057           0.005           0.998       4.915e-02          0.1382
 348       4.500e-01       3.193e+00       1.363e-02          -0.077           0.007           0.997       3.735e-02          0.0098
 349       3.588e-01       3.193e+00       6.383e-03          -0.091           0.008           0.996       2.334e-02         -0.1945
 350       3.063e-01       3.193e+00       1.571e-03          -0.098           0.009           0.995       7.940e-03         -0.6874
Strip 28
 351       1.788e+00       3.552e+00       3.508e-04           0.066          -0.006           0.998       7.425e-03          0.0668
 352       1.756e+00       3.552e+00       2.388e-03           0.063          -0.006           0.998       2.184e-02          0.1114
 353       1.684e+00       3.552e+00       6.763e-03           0.056          -0.005           0.998       3.497e-02          0.1546
 354       1.575e+00       3.552e+00       1.261e-02           0.048          -0.004           0.999       4.606e-02          0.1898
 355       1.436e+00       3.552e+00       1.878e-02           0.037          -0.003           0.999       5.446e-02          0.2168
 356       1.275e+00       3.552e+00       2.415e-02           0.024          -0.002           1.000       5.969e-02          0.2350
 357       1.102e+00       3.552e+00       2.778e-02           0.011          -0.001           1.000       6.147e-02          0.2518
 358       9.263e-01       3.552e+00       2.901e-02          -0.006           0.001           1.000       5.968e-02          0.2647
 359       7.580e-01       3.552e+00       2.700e-02          -0.033           0.003           0.999       5.445e-02          0.2206
 360       6.072e-01       3.552e+00       2.127e-02          -0.057           0.005           0.998       4.608e-02          0.1333
 361       4.826e-01       3.552e+00       1.363e-02          -0.077           0.007           0.997       3.502e-02          0.0034
 362       3.914e-01       3.552e+00       6.383e-03          -0.091           0.008           0.996       2.189e-02         -0.2045
 363       3.389e-01       3.552e+00       1.571e-03          -0.098           0.009           0.995       7.444e-03         -0.7108
Strip 29
 364       1.818e+00       3.886e+00       3.508e-04           0.066          -0.006           0.998       6.880e-03          0.0659
 365       1.786e+00       3.886e+00       2.388e-03           0.063          -0.006           0.998       2.024e-02          0.1099
 366       1.714e+00       3.886e+00       6.763e-03           0.056          -0.005           0.998       3.241e-02          0.1523
 367       1.605e+00       3.886e+00       1.261e-02           0.048          -0.004           0.999       4.268e-02          0.1869
 368       1.467e+00       3.886e+00       1.878e-02           0.037          -0.003           0.999       5.046e-02          0.2133
 369       1.306e+00       3.886e+00       2.415e-02           0.024          -0.002           1.000       5.532e-02          0.2310
 370       1.133e+00       3.886e+00       2.778e-02           0.011          -0.001           1.000       5.696e-02          0.2474
 371       9.566e-01       3.886e+00       2.901e-02          -0.006           0.001           1.000       5.530e-02          0.2599
 372       7.884e-01       3.886e+00       2.700e-02          -0.033           0.003           0.999       5.046e-02          0.2154
 373       6.376e-01       3.886e+00       2.127e-02          -0.057           0.005           0.998       4.270e-02          0.1273
 374       5.129e-01       3.886e+00       1.363e-02          -0.077           0.007           0.997       3.245e-02         -0.0042
 375       4.217e-01       3.886e+00       6.383e-03          -0.091           0.008           0.996       2.028e-02         -0.2163
 376       3.693e-01       3.886e+00       1.571e-03          -0.098           0.009           0.995       6.898e-03         -0.7384
Strip 30
 377       1.846e+00       4.193e+00       3.508e-04           0.066          -0.006           0.998       6.288e-03          0.0646
 378       1.814e+00       4.193e+00       2.388e-03           0.063          -0.006           0.998       1.850e-02          0.1077
 379       1.742e+00       4.193e+00       6.763e-03           0.056          -0.005           0.998       2.962e-02          0.1492
 380       1.633e+00       4.193e+00       1.261e-02           0.048          -0.004           0.999       3.901e-02          0.1828
 381       1.495e+00       4.193e+00       1.878e-02           0.037          -0.003           0.999       4.613e-02          0.2085
 382       1.334e+00       4.193e+00       2.415e-02           0.024          -0.002           1.000       5.056e-02          0.2256
 383       1.161e+00       4.193e+00       2.778e-02           0.011          -0.001           1.000       5.206e-02          0.2417
 384       9.846e-01       4.193e+00       2.901e-02          -0.006           0.001           1.000       5.054e-02          0.2539
 385       8.164e-01       4.193e+00       2.700e-02          -0.033           0.003           0.999       4.612e-02          0.2090
 386       6.655e-01       4.193e+00       2.127e-02          -0.057           0.005           0.998       3.903e-02          0.1202
 387       5.409e-01       4.193e+00       1.363e-02          -0.077           0.007           0.997       2.966e-02         -0.0130
 388       4.497e-01       4.193e+00       6.383e-03          -0.091           0.008           0.996       1.854e-02         -0.2296
 389       3.972e-01       4.193e+00       1.571e-03          -0.098           0.009           0.995       6.305e-03         -0.7695
Strip 31
 390       1.871e+00       4.472e+00       3.508e-04           0.066          -0.006           0.998       5.654e-03          0.0629
 391       1.840e+00       4.472e+00       2.388e-03           0.063          -0.006           0.998       1.663e-02          0.1047
 392       1.767e+00       4.472e+00       6.763e-03           0.056          -0.005           0.998       2.663e-02          0.1448
 393       1.659e+00       4.472e+00       1.261e-02           0.048          -0.004           0.999       3.507e-02          0.1772
 394       1.520e+00       4.472e+00       1.878e-02           0.037          -0.003           0.999       4.147e-02          0.2018
 395       1.359e+00       4.472e+00       2.415e-02           0.024          -0.002           1.000       4.546e-02          0.2183
 396       1.186e+00       4.472e+00       2.778e-02           0.011          -0.001           1.000       4.681e-02          0.2342
 397       1.010e+00       4.472e+00       2.901e-02          -0.006           0.001           1.000       4.544e-02          0.2465
 398       8.417e-01       4.472e+00       2.700e-02          -0.033           0.003           0.999       4.146e-02          0.2015
 399       6.909e-01       4.472e+00       2.127e-02          -0.057           0.005           0.998       3.509e-02          0.1122
 400       5.663e-01       4.472e+00       1.363e-02          -0.077           0.007           0.997       2.667e-02         -0.0226
 401       4.751e-01       4.472e+00       6.383e-03          -0.091           0.008           0.996       1.667e-02         -0.2440
 402       4.226e-01       4.472e+00       1.571e-03          -0.098           0.009           0.995       5.669e-03         -0.8026
Strip 32
 403       1.894e+00       4.721e+00       3.508e-04           0.066          -0.006           0.998       4.981e-03          0.0606
 404       1.862e+00       4.721e+00       2.388e-03           0.063          -0.006           0.998       1.465e-02          0.1006
 405       1.790e+00       4.721e+00       6.763e-03           0.056          -0.005           0.998       2.346e-02          0.1388
 406       1.681e+00       4.721e+00       1.261e-02           0.048          -0.004           0.999       3.090e-02          0.1693
 407       1.542e+00       4.721e+00       1.878e-02           0.037          -0.003           0.999       3.653e-02          0.1926
 408       1.382e+00       4.721e+00       2.415e-02           0.024          -0.002           1.000       4.004e-02          0.2083
 409       1.208e+00       4.721e+00       2.778e-02           0.011          -0.001           1.000       4.123e-02          0.2241
 410       1.033e+00       4.721e+00       2.901e-02          -0.006           0.001           1.000       4.003e-02          0.2370
 411       8.643e-01       4.721e+00       2.700e-02          -0.033           0.003           0.999       3.653e-02          0.1928
 412       7.135e-01       4.721e+00       2.127e-02          -0.057           0.005           0.998       3.091e-02          0.1037
 413       5.888e-01       4.721e+00       1.363e-02          -0.077           0.007           0.997       2.349e-02         -0.0324
 414       4.976e-01       4.721e+00       6.383e-03          -0.091           0.008           0.996       1.468e-02         -0.2582
 415       4.452e-01       4.721e+00       1.571e-03          -0.098           0.009           0.995       4.994e-03         -0.8350
Strip 33
 416       1.913e+00       4.937e+00       3.508e-04           0.066          -0.006           0.998       4.273e-03          0.0573
 417       1.882e+00       4.937e+00       2.388e-03           0.063          -0.006           0.998       1.257e-02          0.0949
 418       1.809e+00       4.937e+00       6.763e-03           0.056          -0.005           0.998       2.013e-02          0.1304
 419       1.701e+00       4.937e+00       1.261e-02           0.048          -0.004           0.999       2.651e-02          0.1584
 420       1.562e+00       4.937e+00       1.878e-02           0.037          -0.003           0.999       3.134e-02          0.1796
 421       1.401e+00       4.937e+00       2.415e-02           0.024          -0.002           1.000       3.436e-02          0.1943
 422       1.228e+00       4.937e+00       2.778e-02           0.011          -0.001           1.000       3.538e-02          0.2103
 423       1.052e+00       4.937e+00       2.901e-02          -0.006           0.001           1.000       3.435e-02          0.2247
 424       8.840e-01       4.937e+00       2.700e-02          -0.033           0.003           0.999       3.134e-02          0.1826
 425       7.331e-01       4.937e+00       2.127e-02          -0.057           0.005           0.998       2.652e-02          0.0951
 426       6.085e-01       4.937e+00       1.363e-02          -0.077           0.007           0.997       2.016e-02         -0.0410
 427       5.173e-01       4.937e+00       6.383e-03          -0.091           0.008           0.996       1.260e-02         -0.2701
 428       4.648e-01       4.937e+00       1.571e-03          -0.098           0.009           0.995       4.285e-03         -0.8618
Strip 34
 429       1.930e+00       5.119e+00       3.508e-04           0.066          -0.006           0.998       3.537e-03          0.0531
 430       1.898e+00       5.119e+00       2.388e-03           0.063          -0.006           0.998       1.040e-02          0.0874
 431       1.826e+00       5.119e+00       6.763e-03           0.056          -0.005           0.998       1.666e-02          0.1191
 432       1.717e+00       5.119e+00       1.261e-02           0.048          -0.004           0.999       2.194e-02          0.1436
 433       1.579e+00       5.119e+00       1.878e-02           0.037          -0.003           0.999       2.594e-02          0.1620
 434       1.418e+00       5.119e+00       2.415e-02           0.024          -0.002           1.000       2.844e-02          0.1750
 435       1.245e+00       5.119e+00       2.778e-02           0.011          -0.001           1.000       2.928e-02          0.1912
 436       1.069e+00       5.119e+00       2.901e-02          -0.006           0.001           1.000       2.843e-02          0.2080
 437       9.005e-01       5.119e+00       2.700e-02          -0.033           0.003           0.999       2.594e-02          0.1704
 438       7.497e-01       5.119e+00       2.127e-02          -0.057           0.005           0.998       2.195e-02          0.0873
 439       6.251e-01       5.119e+00       1.363e-02          -0.077           0.007           0.997       1.668e-02         -0.0463
 440       5.339e-01       5.119e+00       6.383e-03          -0.091           0.008           0.996       1.043e-02         -0.2762
 441       4.814e-01       5.119e+00       1.571e-03          -0.098           0.009           0.995       3.546e-03         -0.8753
Strip 35
 442       1.943e+00       5.267e+00       3.508e-04           0.066          -0.006           0.998       2.776e-03          0.0477
 443       1.912e+00       5.267e+00       2.388e-03           0.063          -0.006           0.998       8.166e-03          0.0776
 444       1.839e+00       5.267e+00       6.763e-03           0.056          -0.005           0.998       1.308e-02          0.1045
 445       1.731e+00       5.267e+00       1.261e-02           0.048          -0.004           0.999       1.722e-02          0.1244
 446       1.592e+00       5.267e+00       1.878e-02           0.037          -0.003           0.999       2.036e-02          0.1391
 447       1.431e+00       5.267e+00       2.415e-02           0.024          -0.002           1.000       2.232e-02          0.1498
 448       1.258e+00       5.267e+00       2.778e-02           0.011          -0.001           1.000       2.298e-02          0.1654
 449       1.082e+00       5.267e+00       2.901e-02          -0.006           0.001           1.000       2.232e-02          0.1847
 450       9.139e-01       5.267e+00       2.700e-02          -0.033           0.003           0.999       2.036e-02          0.1542
 451       7.631e-01       5.267e+00       2.127e-02          -0.057           0.005           0.998       1.723e-02          0.0808
 452       6.385e-01       5.267e+00       1.363e-02          -0.077           0.007           0.997       1.309e-02         -0.0452
 453       5.473e-01       5.267e+00       6.383e-03          -0.091           0.008           0.996       8.184e-03         -0.2712
 454       4.948e-01       5.267e+00       1.571e-03          -0.098           0.009           0.995       2.784e-03         -0.8642
Strip 36
 455       1.954e+00       5.378e+00       3.508e-04           0.066          -0.006           0.998       1.997e-03          0.0408
 456       1.922e+00       5.378e+00       2.388e-03           0.063          -0.006           0.998       5.873e-03          0.0652
 457       1.850e+00       5.378e+00       6.763e-03           0.056          -0.005           0.998       9.405e-03          0.0858
 458       1.741e+00       5.378e+00       1.261e-02           0.048          -0.004           0.999       1.239e-02          0.1003
 459       1.602e+00       5.378e+00       1.878e-02           0.037          -0.003           0.999       1.465e-02          0.1110
 460       1.442e+00       5.378e+00       2.415e-02           0.024          -0.002           1.000       1.605e-02          0.1189
 461       1.268e+00       5.378e+00       2.778e-02           0.011          -0.001           1.000       1.653e-02          0.1324
 462       1.092e+00       5.378e+00       2.901e-02          -0.006           0.001           1.000       1.605e-02          0.1526
 463       9.241e-01       5.378e+00       2.700e-02          -0.033           0.003           0.999       1.464e-02          0.1306
 464       7.733e-01       5.378e+00       2.127e-02          -0.057           0.005           0.998       1.239e-02          0.0734
 465       6.486e-01       5.378e+00       1.363e-02          -0.077           0.007           0.997       9.418e-03         -0.0338
 466       5.574e-01       5.378e+00       6.383e-03          -0.091           0.008           0.996       5.886e-03         -0.2465
 467       5.050e-01       5.378e+00       1.571e-03          -0.098           0.009           0.995       2.002e-03         -0.8126
Strip 37
 468       1.960e+00       5.453e+00       3.508e-04           0.066          -0.006           0.998       1.204e-03          0.0322
 469       1.929e+00       5.453e+00       2.388e-03           0.063          -0.006           0.998       3.540e-03          0.0493
 470       1.856e+00       5.453e+00       6.763e-03           0.056          -0.005           0.998       5.669e-03          0.0627
 471       1.748e+00       5.453e+00       1.261e-02           0.048          -0.004           0.999       7.466e-03          0.0719
 472       1.609e+00       5.453e+00       1.878e-02           0.037          -0.003           0.999       8.828e-03          0.0789
 473       1.448e+00       5.453e+00       2.415e-02           0.024          -0.002           1.000       9.676e-03          0.0839
 474       1.275e+00       5.453e+00       2.778e-02           0.011          -0.001           1.000       9.964e-03          0.0940
 475       1.099e+00       5.453e+00       2.901e-02          -0.006           0.001           1.000       9.674e-03          0.1112
 476       9.309e-01       5.453e+00       2.700e-02          -0.033           0.003           0.999       8.826e-03          0.0971
 477       7.801e-01       5.453e+00       2.127e-02          -0.057           0.005           0.998       7.470e-03          0.0592
 478       6.554e-01       5.453e+00       1.363e-02          -0.077           0.007           0.997       5.676e-03         -0.0146
 479       5.642e-01       5.453e+00       6.383e-03          -0.091           0.008           0.996       3.548e-03         -0.1886
 480       5.118e-01       5.453e+00       1.571e-03          -0.098           0.009           0.995       1.207e-03         -0.6991
Strip 38
 481       1.964e+00       5.491e+00       3.508e-04           0.066          -0.006           0.998       4.021e-04          0.0217
 482       1.932e+00       5.491e+00       2.388e-03           0.063          -0.006           0.998       1.183e-03          0.0301
 483       1.860e+00       5.491e+00       6.763e-03           0.056          -0.005           0.998       1.894e-03          0.0372
 484       1.751e+00       5.491e+00       1.261e-02           0.048          -0.004           0.999       2.494e-03          0.0423
 485       1.612e+00       5.491e+00       1.878e-02           0.037          -0.003           0.999       2.949e-03          0.0462
 486       1.452e+00       5.491e+00       2.415e-02           0.024          -0.002           1.000       3.233e-03          0.0490
 487       1.278e+00       5.491e+00       2.778e-02           0.011          -0.001           1.000       3.329e-03          0.0550
 488       1.103e+00       5.491e+00       2.901e-02          -0.006           0.001           1.000       3.232e-03          0.0659
 489       9.343e-01       5.491e+00       2.700e-02          -0.033           0.003           0.999       2.949e-03          0.0580
 490       7.835e-01       5.491e+00       2.127e-02          -0.057           0.005           0.998       2.496e-03          0.0367
 491       6.588e-01       5.491e+00       1.363e-02          -0.077           0.007           0.997       1.896e-03         -0.0039
 492       5.676e-01       5.491e+00       6.383e-03          -0.091           0.008           0.996       1.185e-03         -0.1005
 493       5.152e-01       5.491e+00       1.571e-03          -0.098           0.009           0.995       4.032e-04         -0.4904










