xflr5 v6.47

Flying_wing_6
T1-55.0 m/s-VLM2-Inviscid
QInf  =   55.000000 m/s
Alpha =    0.000000
Beta  =    0.000°
Phi   =    0.000°
Ctrl  =    0.000
CL    =    0.146571
Cy    =    0.000000
Cd    =    0.001016     ICd   =    0.001016     PCd   =    0.000000
Cl   = 7.35895e-17
Cm   =  -0.0175476
ICn   =   -0.000000     PCn   =   -0.000000 
XCP   =    2.045638     YCP   =   -0.000000     ZCP   =    0.025414  
XNP   =    0.000000
Bending = 5297.155292

Main Wing
  y-span        Chord      Ai         Cl        PCd          ICd        CmGeom    CmAirf@chord/4    XTrtop    XTrBot      XCP       BM
   -5.4906     1.4700    -1.550    0.032610    0.000000    0.000877   -0.034009   -0.012098     0.0000    0.0000    0.6232    0.0000
   -5.4531     1.4700    -1.453    0.055220    0.000000    0.001399   -0.056951   -0.020294     0.0000    0.0000    0.6178    0.0627
   -5.3783     1.4700    -1.324    0.077474    0.000000    0.001790   -0.077579   -0.027915     0.0000    0.0000    0.6104    0.8206
   -5.2668     1.4700    -1.178    0.096970    0.000000    0.001993   -0.093065   -0.034239     0.0000    0.0000    0.6031    4.1486
   -5.1194     1.4700    -1.026    0.113149    0.000000    0.002026   -0.102622   -0.039137     0.0000    0.0000    0.5959   13.6092
   -4.9369     1.4700    -0.880    0.126009    0.000000    0.001934   -0.106279   -0.042686     0.0000    0.0000    0.5888   34.6163
   -4.7208     1.4700    -0.747    0.135893    0.000000    0.001772   -0.104602   -0.045103     0.0000    0.0000    0.5819   74.3378
   -4.4723     1.4700    -0.635    0.143324    0.000000    0.001589   -0.098420   -0.046677     0.0000    0.0000    0.5757   141.4077
   -4.1934     1.4700    -0.544    0.148830    0.000000    0.001414   -0.088577   -0.047683     0.0000    0.0000    0.5704   245.5289
   -3.8858     1.4700    -0.473    0.152841    0.000000    0.001261   -0.075792   -0.048334     0.0000    0.0000    0.5662   397.0237
   -3.5516     1.4700    -0.417    0.155666    0.000000    0.001132   -0.060648   -0.048767     0.0000    0.0000    0.5633   606.3627
   -3.1932     1.4700    -0.373    0.157511    0.000000    0.001025   -0.043631   -0.049066     0.0000    0.0000    0.5615   883.6823
   -2.8130     1.4700    -0.338    0.158500    0.000000    0.000935   -0.025179   -0.049283     0.0000    0.0000    0.5609   1238.3057
   -2.4135     1.4700    -0.310    0.158691    0.000000    0.000859   -0.005719   -0.049453     0.0000    0.0000    0.5616   1678.2778
   -1.9976     1.4700    -0.287    0.158070    0.000000    0.000791    0.014286   -0.049607     0.0000    0.0000    0.5638   2209.9230
   -1.5680     1.4700    -0.265    0.156542    0.000000    0.000723    0.034283   -0.049785     0.0000    0.0000    0.5680   2837.4334
   -1.1277     1.4700    -0.238    0.153892    0.000000    0.000638    0.053520   -0.050077     0.0000    0.0000    0.5754   3562.4846
   -0.6797     1.4700    -0.188    0.149741    0.000000    0.000492    0.070828   -0.050718     0.0000    0.0000    0.5887   4383.8727
   -0.2271     1.4700    -0.035    0.143645    0.000000    0.000088    0.084245   -0.052458     0.0000    0.0000    0.6152   5297.1553
    0.2271     1.4700    -0.035    0.143645    0.000000    0.000088    0.084245   -0.052458     0.0000    0.0000    0.6152   5297.1553
    0.6797     1.4700    -0.188    0.149741    0.000000    0.000492    0.070828   -0.050718     0.0000    0.0000    0.5887   4383.8727
    1.1277     1.4700    -0.238    0.153892    0.000000    0.000638    0.053520   -0.050077     0.0000    0.0000    0.5754   3562.4846
    1.5680     1.4700    -0.265    0.156542    0.000000    0.000723    0.034283   -0.049785     0.0000    0.0000    0.5680   2837.4334
    1.9976     1.4700    -0.287    0.158070    0.000000    0.000791    0.014286   -0.049607     0.0000    0.0000    0.5638   2209.9230
    2.4135     1.4700    -0.310    0.158691    0.000000    0.000859   -0.005719   -0.049453     0.0000    0.0000    0.5616   1678.2778
    2.8130     1.4700    -0.338    0.158500    0.000000    0.000935   -0.025179   -0.049283     0.0000    0.0000    0.5609   1238.3057
    3.1932     1.4700    -0.373    0.157511    0.000000    0.001025   -0.043631   -0.049066     0.0000    0.0000    0.5615   883.6823
    3.5516     1.4700    -0.417    0.155666    0.000000    0.001132   -0.060648   -0.048767     0.0000    0.0000    0.5633   606.3627
    3.8858     1.4700    -0.473    0.152841    0.000000    0.001261   -0.075792   -0.048334     0.0000    0.0000    0.5662   397.0237
    4.1934     1.4700    -0.544    0.148830    0.000000    0.001414   -0.088577   -0.047683     0.0000    0.0000    0.5704   245.5289
    4.4723     1.4700    -0.635    0.143324    0.000000    0.001589   -0.098420   -0.046677     0.0000    0.0000    0.5757   141.4077
    4.7208     1.4700    -0.747    0.135893    0.000000    0.001772   -0.104602   -0.045103     0.0000    0.0000    0.5819   74.3378
    4.9369     1.4700    -0.880    0.126009    0.000000    0.001934   -0.106279   -0.042686     0.0000    0.0000    0.5888   34.6163
    5.1194     1.4700    -1.026    0.113149    0.000000    0.002026   -0.102622   -0.039137     0.0000    0.0000    0.5959   13.6092
    5.2668     1.4700    -1.178    0.096970    0.000000    0.001993   -0.093065   -0.034239     0.0000    0.0000    0.6031    4.1486
    5.3783     1.4700    -1.324    0.077474    0.000000    0.001790   -0.077579   -0.027915     0.0000    0.0000    0.6104    0.8206
    5.4531     1.4700    -1.453    0.055220    0.000000    0.001399   -0.056951   -0.020294     0.0000    0.0000    0.6178    0.0627
    5.4906     1.4700    -1.550    0.032610    0.000000    0.000877   -0.034009   -0.012098     0.0000    0.0000    0.6232    0.0000


Main Wing Cp Coefficients
 Panel     CtrlPt.x        CtrlPt.y        CtrlPt.z       Nx      Ny       Nz        Area       Cp
Main WingCp Coefficients
Strip 1
   0       3.960e+00      -5.491e+00       3.508e-04           0.066           0.030           0.997       4.023e-04          0.0176
   1       3.929e+00      -5.491e+00       2.388e-03           0.063           0.028           0.998       1.183e-03          0.0249
   2       3.856e+00      -5.491e+00       6.763e-03           0.056           0.026           0.998       1.894e-03          0.0320
   3       3.748e+00      -5.491e+00       1.261e-02           0.048           0.022           0.999       2.495e-03          0.0374
   4       3.609e+00      -5.491e+00       1.878e-02           0.037           0.017           0.999       2.950e-03          0.0421
   5       3.448e+00      -5.491e+00       2.415e-02           0.024           0.011           1.000       3.233e-03          0.0459
   6       3.275e+00      -5.491e+00       2.778e-02           0.011           0.005           1.000       3.329e-03          0.0531
   7       3.099e+00      -5.491e+00       2.901e-02          -0.006          -0.003           1.000       3.232e-03          0.0661
   8       2.931e+00      -5.491e+00       2.700e-02          -0.033          -0.015           0.999       2.949e-03          0.0624
   9       2.780e+00      -5.491e+00       2.127e-02          -0.057          -0.026           0.998       2.496e-03          0.0463
  10       2.655e+00      -5.491e+00       1.363e-02          -0.077          -0.035           0.996       1.898e-03          0.0123
  11       2.564e+00      -5.491e+00       6.383e-03          -0.091          -0.041           0.995       1.186e-03         -0.0751
  12       2.512e+00      -5.491e+00       1.571e-03          -0.098          -0.044           0.994       4.035e-04         -0.4714
Strip 2
  13       3.943e+00      -5.453e+00       3.508e-04           0.066           0.030           0.997       1.204e-03          0.0256
  14       3.912e+00      -5.453e+00       2.388e-03           0.063           0.028           0.998       3.541e-03          0.0406
  15       3.839e+00      -5.453e+00       6.763e-03           0.056           0.026           0.998       5.670e-03          0.0537
  16       3.731e+00      -5.453e+00       1.261e-02           0.048           0.022           0.999       7.468e-03          0.0637
  17       3.592e+00      -5.453e+00       1.878e-02           0.037           0.017           0.999       8.829e-03          0.0719
  18       3.431e+00      -5.453e+00       2.415e-02           0.024           0.011           1.000       9.677e-03          0.0787
  19       3.258e+00      -5.453e+00       2.778e-02           0.011           0.005           1.000       9.964e-03          0.0909
  20       3.082e+00      -5.453e+00       2.901e-02          -0.006          -0.003           1.000       9.674e-03          0.1118
  21       2.914e+00      -5.453e+00       2.700e-02          -0.033          -0.015           0.999       8.827e-03          0.1046
  22       2.763e+00      -5.453e+00       2.127e-02          -0.057          -0.026           0.998       7.472e-03          0.0750
  23       2.638e+00      -5.453e+00       1.363e-02          -0.077          -0.035           0.996       5.680e-03          0.0101
  24       2.547e+00      -5.453e+00       6.383e-03          -0.091          -0.041           0.995       3.550e-03         -0.1570
  25       2.495e+00      -5.453e+00       1.571e-03          -0.098          -0.044           0.994       1.208e-03         -0.6226
Strip 3
  26       3.909e+00      -5.378e+00       3.508e-04           0.066           0.030           0.997       1.998e-03          0.0339
  27       3.878e+00      -5.378e+00       2.388e-03           0.063           0.028           0.998       5.875e-03          0.0548
  28       3.805e+00      -5.378e+00       6.763e-03           0.056           0.026           0.998       9.408e-03          0.0740
  29       3.697e+00      -5.378e+00       1.261e-02           0.048           0.022           0.999       1.239e-02          0.0891
  30       3.558e+00      -5.378e+00       1.878e-02           0.037           0.017           0.999       1.465e-02          0.1015
  31       3.397e+00      -5.378e+00       2.415e-02           0.024           0.011           1.000       1.605e-02          0.1120
  32       3.224e+00      -5.378e+00       2.778e-02           0.011           0.005           1.000       1.653e-02          0.1288
  33       3.048e+00      -5.378e+00       2.901e-02          -0.006          -0.003           1.000       1.605e-02          0.1537
  34       2.880e+00      -5.378e+00       2.700e-02          -0.033          -0.015           0.999       1.465e-02          0.1400
  35       2.729e+00      -5.378e+00       2.127e-02          -0.057          -0.026           0.998       1.240e-02          0.0918
  36       2.604e+00      -5.378e+00       1.363e-02          -0.077          -0.035           0.996       9.423e-03         -0.0071
  37       2.513e+00      -5.378e+00       6.383e-03          -0.091          -0.041           0.995       5.891e-03         -0.1997
  38       2.461e+00      -5.378e+00       1.571e-03          -0.098          -0.044           0.994       2.004e-03         -0.6864
Strip 4
  39       3.859e+00      -5.267e+00       3.508e-04           0.066           0.030           0.997       2.777e-03          0.0409
  40       3.827e+00      -5.267e+00       2.388e-03           0.063           0.028           0.998       8.169e-03          0.0671
  41       3.755e+00      -5.267e+00       6.763e-03           0.056           0.026           0.998       1.308e-02          0.0917
  42       3.646e+00      -5.267e+00       1.261e-02           0.048           0.022           0.999       1.723e-02          0.1117
  43       3.507e+00      -5.267e+00       1.878e-02           0.037           0.017           0.999       2.037e-02          0.1282
  44       3.347e+00      -5.267e+00       2.415e-02           0.024           0.011           1.000       2.232e-02          0.1421
  45       3.173e+00      -5.267e+00       2.778e-02           0.011           0.005           1.000       2.298e-02          0.1617
  46       2.997e+00      -5.267e+00       2.901e-02          -0.006          -0.003           1.000       2.232e-02          0.1856
  47       2.829e+00      -5.267e+00       2.700e-02          -0.033          -0.015           0.999       2.036e-02          0.1627
  48       2.678e+00      -5.267e+00       2.127e-02          -0.057          -0.026           0.998       1.724e-02          0.0977
  49       2.554e+00      -5.267e+00       1.363e-02          -0.077          -0.035           0.996       1.310e-02         -0.0158
  50       2.463e+00      -5.267e+00       6.383e-03          -0.091          -0.041           0.995       8.190e-03         -0.2117
  51       2.410e+00      -5.267e+00       1.571e-03          -0.098          -0.044           0.994       2.786e-03         -0.7056
Strip 5
  52       3.792e+00      -5.119e+00       3.508e-04           0.066           0.030           0.997       3.538e-03          0.0468
  53       3.760e+00      -5.119e+00       2.388e-03           0.063           0.028           0.998       1.041e-02          0.0774
  54       3.688e+00      -5.119e+00       6.763e-03           0.056           0.026           0.998       1.666e-02          0.1067
  55       3.579e+00      -5.119e+00       1.261e-02           0.048           0.022           0.999       2.195e-02          0.1308
  56       3.440e+00      -5.119e+00       1.878e-02           0.037           0.017           0.999       2.595e-02          0.1508
  57       3.280e+00      -5.119e+00       2.415e-02           0.024           0.011           1.000       2.844e-02          0.1670
  58       3.106e+00      -5.119e+00       2.778e-02           0.011           0.005           1.000       2.928e-02          0.1868
  59       2.930e+00      -5.119e+00       2.901e-02          -0.006          -0.003           1.000       2.843e-02          0.2070
  60       2.762e+00      -5.119e+00       2.700e-02          -0.033          -0.015           0.999       2.594e-02          0.1760
  61       2.611e+00      -5.119e+00       2.127e-02          -0.057          -0.026           0.998       2.196e-02          0.1024
  62       2.487e+00      -5.119e+00       1.363e-02          -0.077          -0.035           0.996       1.669e-02         -0.0149
  63       2.395e+00      -5.119e+00       6.383e-03          -0.091          -0.041           0.995       1.043e-02         -0.2101
  64       2.343e+00      -5.119e+00       1.571e-03          -0.098          -0.044           0.994       3.550e-03         -0.7002
Strip 6
  65       3.709e+00      -4.937e+00       3.508e-04           0.066           0.030           0.997       4.275e-03          0.0516
  66       3.677e+00      -4.937e+00       2.388e-03           0.063           0.028           0.998       1.257e-02          0.0857
  67       3.605e+00      -4.937e+00       6.763e-03           0.056           0.026           0.998       2.013e-02          0.1187
  68       3.496e+00      -4.937e+00       1.261e-02           0.048           0.022           0.999       2.651e-02          0.1461
  69       3.357e+00      -4.937e+00       1.878e-02           0.037           0.017           0.999       3.135e-02          0.1684
  70       3.197e+00      -4.937e+00       2.415e-02           0.024           0.011           1.000       3.436e-02          0.1855
  71       3.023e+00      -4.937e+00       2.778e-02           0.011           0.005           1.000       3.538e-02          0.2042
  72       2.847e+00      -4.937e+00       2.901e-02          -0.006          -0.003           1.000       3.435e-02          0.2209
  73       2.679e+00      -4.937e+00       2.700e-02          -0.033          -0.015           0.999       3.134e-02          0.1851
  74       2.528e+00      -4.937e+00       2.127e-02          -0.057          -0.026           0.998       2.653e-02          0.1084
  75       2.404e+00      -4.937e+00       1.363e-02          -0.077          -0.035           0.996       2.017e-02         -0.0096
  76       2.313e+00      -4.937e+00       6.383e-03          -0.091          -0.041           0.995       1.261e-02         -0.2025
  77       2.260e+00      -4.937e+00       1.571e-03          -0.098          -0.044           0.994       4.289e-03         -0.6827
Strip 7
  78       3.610e+00      -4.721e+00       3.508e-04           0.066           0.030           0.997       4.983e-03          0.0553
  79       3.579e+00      -4.721e+00       2.388e-03           0.063           0.028           0.998       1.466e-02          0.0921
  80       3.506e+00      -4.721e+00       6.763e-03           0.056           0.026           0.998       2.347e-02          0.1278
  81       3.398e+00      -4.721e+00       1.261e-02           0.048           0.022           0.999       3.090e-02          0.1573
  82       3.259e+00      -4.721e+00       1.878e-02           0.037           0.017           0.999       3.654e-02          0.1810
  83       3.098e+00      -4.721e+00       2.415e-02           0.024           0.011           1.000       4.005e-02          0.1983
  84       2.925e+00      -4.721e+00       2.778e-02           0.011           0.005           1.000       4.123e-02          0.2158
  85       2.749e+00      -4.721e+00       2.901e-02          -0.006          -0.003           1.000       4.003e-02          0.2303
  86       2.581e+00      -4.721e+00       2.700e-02          -0.033          -0.015           0.999       3.653e-02          0.1926
  87       2.430e+00      -4.721e+00       2.127e-02          -0.057          -0.026           0.998       3.092e-02          0.1147
  88       2.305e+00      -4.721e+00       1.363e-02          -0.077          -0.035           0.996       2.351e-02         -0.0028
  89       2.214e+00      -4.721e+00       6.383e-03          -0.091          -0.041           0.995       1.469e-02         -0.1929
  90       2.162e+00      -4.721e+00       1.571e-03          -0.098          -0.044           0.994       4.999e-03         -0.6608
Strip 8
  91       3.498e+00      -4.472e+00       3.508e-04           0.066           0.030           0.997       5.656e-03          0.0579
  92       3.466e+00      -4.472e+00       2.388e-03           0.063           0.028           0.998       1.664e-02          0.0966
  93       3.394e+00      -4.472e+00       6.763e-03           0.056           0.026           0.998       2.664e-02          0.1341
  94       3.285e+00      -4.472e+00       1.261e-02           0.048           0.022           0.999       3.508e-02          0.1651
  95       3.146e+00      -4.472e+00       1.878e-02           0.037           0.017           0.999       4.148e-02          0.1896
  96       2.986e+00      -4.472e+00       2.415e-02           0.024           0.011           1.000       4.546e-02          0.2069
  97       2.812e+00      -4.472e+00       2.778e-02           0.011           0.005           1.000       4.681e-02          0.2237
  98       2.636e+00      -4.472e+00       2.901e-02          -0.006          -0.003           1.000       4.544e-02          0.2372
  99       2.468e+00      -4.472e+00       2.700e-02          -0.033          -0.015           0.999       4.147e-02          0.1987
 100       2.317e+00      -4.472e+00       2.127e-02          -0.057          -0.026           0.998       3.510e-02          0.1207
 101       2.193e+00      -4.472e+00       1.363e-02          -0.077          -0.035           0.996       2.668e-02          0.0039
 102       2.101e+00      -4.472e+00       6.383e-03          -0.091          -0.041           0.995       1.668e-02         -0.1833
 103       2.049e+00      -4.472e+00       1.571e-03          -0.098          -0.044           0.994       5.674e-03         -0.6390
Strip 9
 104       3.371e+00      -4.193e+00       3.508e-04           0.066           0.030           0.997       6.291e-03          0.0597
 105       3.339e+00      -4.193e+00       2.388e-03           0.063           0.028           0.998       1.850e-02          0.0996
 106       3.267e+00      -4.193e+00       6.763e-03           0.056           0.026           0.998       2.963e-02          0.1384
 107       3.158e+00      -4.193e+00       1.261e-02           0.048           0.022           0.999       3.902e-02          0.1704
 108       3.019e+00      -4.193e+00       1.878e-02           0.037           0.017           0.999       4.613e-02          0.1953
 109       2.859e+00      -4.193e+00       2.415e-02           0.024           0.011           1.000       5.056e-02          0.2127
 110       2.685e+00      -4.193e+00       2.778e-02           0.011           0.005           1.000       5.206e-02          0.2292
 111       2.509e+00      -4.193e+00       2.901e-02          -0.006          -0.003           1.000       5.054e-02          0.2424
 112       2.341e+00      -4.193e+00       2.700e-02          -0.033          -0.015           0.999       4.612e-02          0.2036
 113       2.190e+00      -4.193e+00       2.127e-02          -0.057          -0.026           0.998       3.904e-02          0.1257
 114       2.066e+00      -4.193e+00       1.363e-02          -0.077          -0.035           0.996       2.968e-02          0.0097
 115       1.975e+00      -4.193e+00       6.383e-03          -0.091          -0.041           0.995       1.855e-02         -0.1749
 116       1.922e+00      -4.193e+00       1.571e-03          -0.098          -0.044           0.994       6.311e-03         -0.6197
Strip 10
 117       3.231e+00      -3.886e+00       3.508e-04           0.066           0.030           0.997       6.883e-03          0.0609
 118       3.199e+00      -3.886e+00       2.388e-03           0.063           0.028           0.998       2.024e-02          0.1017
 119       3.127e+00      -3.886e+00       6.763e-03           0.056           0.026           0.998       3.242e-02          0.1413
 120       3.018e+00      -3.886e+00       1.261e-02           0.048           0.022           0.999       4.269e-02          0.1738
 121       2.880e+00      -3.886e+00       1.878e-02           0.037           0.017           0.999       5.047e-02          0.1992
 122       2.719e+00      -3.886e+00       2.415e-02           0.024           0.011           1.000       5.532e-02          0.2167
 123       2.546e+00      -3.886e+00       2.778e-02           0.011           0.005           1.000       5.696e-02          0.2332
 124       2.370e+00      -3.886e+00       2.901e-02          -0.006          -0.003           1.000       5.530e-02          0.2462
 125       2.201e+00      -3.886e+00       2.700e-02          -0.033          -0.015           0.999       5.046e-02          0.2074
 126       2.051e+00      -3.886e+00       2.127e-02          -0.057          -0.026           0.998       4.272e-02          0.1296
 127       1.926e+00      -3.886e+00       1.363e-02          -0.077          -0.035           0.996       3.247e-02          0.0143
 128       1.835e+00      -3.886e+00       6.383e-03          -0.091          -0.041           0.995       2.030e-02         -0.1681
 129       1.782e+00      -3.886e+00       1.571e-03          -0.098          -0.044           0.994       6.905e-03         -0.6041
Strip 11
 130       3.079e+00      -3.552e+00       3.508e-04           0.066           0.030           0.997       7.428e-03          0.0617
 131       3.047e+00      -3.552e+00       2.388e-03           0.063           0.028           0.998       2.185e-02          0.1030
 132       2.975e+00      -3.552e+00       6.763e-03           0.056           0.026           0.998       3.498e-02          0.1432
 133       2.866e+00      -3.552e+00       1.261e-02           0.048           0.022           0.999       4.607e-02          0.1762
 134       2.728e+00      -3.552e+00       1.878e-02           0.037           0.017           0.999       5.447e-02          0.2018
 135       2.567e+00      -3.552e+00       2.415e-02           0.024           0.011           1.000       5.970e-02          0.2194
 136       2.394e+00      -3.552e+00       2.778e-02           0.011           0.005           1.000       6.147e-02          0.2359
 137       2.218e+00      -3.552e+00       2.901e-02          -0.006          -0.003           1.000       5.968e-02          0.2490
 138       2.050e+00      -3.552e+00       2.700e-02          -0.033          -0.015           0.999       5.446e-02          0.2101
 139       1.899e+00      -3.552e+00       2.127e-02          -0.057          -0.026           0.998       4.610e-02          0.1325
 140       1.774e+00      -3.552e+00       1.363e-02          -0.077          -0.035           0.996       3.504e-02          0.0177
 141       1.683e+00      -3.552e+00       6.383e-03          -0.091          -0.041           0.995       2.190e-02         -0.1631
 142       1.630e+00      -3.552e+00       1.571e-03          -0.098          -0.044           0.994       7.451e-03         -0.5929
Strip 12
 143       2.916e+00      -3.193e+00       3.508e-04           0.066           0.030           0.997       7.922e-03          0.0622
 144       2.884e+00      -3.193e+00       2.388e-03           0.063           0.028           0.998       2.330e-02          0.1039
 145       2.812e+00      -3.193e+00       6.763e-03           0.056           0.026           0.998       3.731e-02          0.1444
 146       2.703e+00      -3.193e+00       1.261e-02           0.048           0.022           0.999       4.913e-02          0.1777
 147       2.565e+00      -3.193e+00       1.878e-02           0.037           0.017           0.999       5.809e-02          0.2035
 148       2.404e+00      -3.193e+00       2.415e-02           0.024           0.011           1.000       6.367e-02          0.2213
 149       2.231e+00      -3.193e+00       2.778e-02           0.011           0.005           1.000       6.556e-02          0.2378
 150       2.055e+00      -3.193e+00       2.901e-02          -0.006          -0.003           1.000       6.365e-02          0.2508
 151       1.887e+00      -3.193e+00       2.700e-02          -0.033          -0.015           0.999       5.808e-02          0.2119
 152       1.736e+00      -3.193e+00       2.127e-02          -0.057          -0.026           0.998       4.916e-02          0.1343
 153       1.611e+00      -3.193e+00       1.363e-02          -0.077          -0.035           0.996       3.737e-02          0.0198
 154       1.520e+00      -3.193e+00       6.383e-03          -0.091          -0.041           0.995       2.336e-02         -0.1602
 155       1.467e+00      -3.193e+00       1.571e-03          -0.098          -0.044           0.994       7.947e-03         -0.5862
Strip 13
 156       2.743e+00      -2.813e+00       3.508e-04           0.066           0.030           0.997       8.362e-03          0.0625
 157       2.712e+00      -2.813e+00       2.388e-03           0.063           0.028           0.998       2.459e-02          0.1045
 158       2.639e+00      -2.813e+00       6.763e-03           0.056           0.026           0.998       3.938e-02          0.1452
 159       2.531e+00      -2.813e+00       1.261e-02           0.048           0.022           0.999       5.186e-02          0.1787
 160       2.392e+00      -2.813e+00       1.878e-02           0.037           0.017           0.999       6.132e-02          0.2046
 161       2.231e+00      -2.813e+00       2.415e-02           0.024           0.011           1.000       6.721e-02          0.2224
 162       2.058e+00      -2.813e+00       2.778e-02           0.011           0.005           1.000       6.920e-02          0.2389
 163       1.882e+00      -2.813e+00       2.901e-02          -0.006          -0.003           1.000       6.718e-02          0.2518
 164       1.714e+00      -2.813e+00       2.700e-02          -0.033          -0.015           0.999       6.131e-02          0.2129
 165       1.563e+00      -2.813e+00       2.127e-02          -0.057          -0.026           0.998       5.189e-02          0.1352
 166       1.438e+00      -2.813e+00       1.363e-02          -0.077          -0.035           0.996       3.945e-02          0.0206
 167       1.347e+00      -2.813e+00       6.383e-03          -0.091          -0.041           0.995       2.466e-02         -0.1592
 168       1.295e+00      -2.813e+00       1.571e-03          -0.098          -0.044           0.994       8.389e-03         -0.5843
Strip 14
 169       2.562e+00      -2.414e+00       3.508e-04           0.066           0.030           0.997       8.745e-03          0.0628
 170       2.530e+00      -2.414e+00       2.388e-03           0.063           0.028           0.998       2.572e-02          0.1049
 171       2.458e+00      -2.414e+00       6.763e-03           0.056           0.026           0.998       4.119e-02          0.1457
 172       2.349e+00      -2.414e+00       1.261e-02           0.048           0.022           0.999       5.424e-02          0.1793
 173       2.210e+00      -2.414e+00       1.878e-02           0.037           0.017           0.999       6.413e-02          0.2053
 174       2.050e+00      -2.414e+00       2.415e-02           0.024           0.011           1.000       7.028e-02          0.2230
 175       1.876e+00      -2.414e+00       2.778e-02           0.011           0.005           1.000       7.237e-02          0.2394
 176       1.700e+00      -2.414e+00       2.901e-02          -0.006          -0.003           1.000       7.026e-02          0.2522
 177       1.532e+00      -2.414e+00       2.700e-02          -0.033          -0.015           0.999       6.411e-02          0.2130
 178       1.381e+00      -2.414e+00       2.127e-02          -0.057          -0.026           0.998       5.427e-02          0.1350
 179       1.257e+00      -2.414e+00       1.363e-02          -0.077          -0.035           0.996       4.125e-02          0.0200
 180       1.166e+00      -2.414e+00       6.383e-03          -0.091          -0.041           0.995       2.579e-02         -0.1605
 181       1.113e+00      -2.414e+00       1.571e-03          -0.098          -0.044           0.994       8.773e-03         -0.5875
Strip 15
 182       2.373e+00      -1.998e+00       3.508e-04           0.066           0.030           0.997       9.068e-03          0.0629
 183       2.341e+00      -1.998e+00       2.388e-03           0.063           0.028           0.998       2.667e-02          0.1051
 184       2.269e+00      -1.998e+00       6.763e-03           0.056           0.026           0.998       4.271e-02          0.1460
 185       2.160e+00      -1.998e+00       1.261e-02           0.048           0.022           0.999       5.624e-02          0.1796
 186       2.021e+00      -1.998e+00       1.878e-02           0.037           0.017           0.999       6.649e-02          0.2055
 187       1.861e+00      -1.998e+00       2.415e-02           0.024           0.011           1.000       7.288e-02          0.2231
 188       1.687e+00      -1.998e+00       2.778e-02           0.011           0.005           1.000       7.504e-02          0.2393
 189       1.511e+00      -1.998e+00       2.901e-02          -0.006          -0.003           1.000       7.286e-02          0.2518
 190       1.343e+00      -1.998e+00       2.700e-02          -0.033          -0.015           0.999       6.648e-02          0.2122
 191       1.192e+00      -1.998e+00       2.127e-02          -0.057          -0.026           0.998       5.628e-02          0.1336
 192       1.068e+00      -1.998e+00       1.363e-02          -0.077          -0.035           0.996       4.278e-02          0.0178
 193       9.765e-01      -1.998e+00       6.383e-03          -0.091          -0.041           0.995       2.674e-02         -0.1643
 194       9.240e-01      -1.998e+00       1.571e-03          -0.098          -0.044           0.994       9.097e-03         -0.5970
Strip 16
 195       2.177e+00      -1.568e+00       3.508e-04           0.066           0.030           0.997       9.329e-03          0.0630
 196       2.146e+00      -1.568e+00       2.388e-03           0.063           0.028           0.998       2.744e-02          0.1052
 197       2.073e+00      -1.568e+00       6.763e-03           0.056           0.026           0.998       4.394e-02          0.1461
 198       1.965e+00      -1.568e+00       1.261e-02           0.048           0.022           0.999       5.786e-02          0.1797
 199       1.826e+00      -1.568e+00       1.878e-02           0.037           0.017           0.999       6.841e-02          0.2055
 200       1.665e+00      -1.568e+00       2.415e-02           0.024           0.011           1.000       7.498e-02          0.2229
 201       1.492e+00      -1.568e+00       2.778e-02           0.011           0.005           1.000       7.720e-02          0.2387
 202       1.316e+00      -1.568e+00       2.901e-02          -0.006          -0.003           1.000       7.496e-02          0.2506
 203       1.148e+00      -1.568e+00       2.700e-02          -0.033          -0.015           0.999       6.840e-02          0.2104
 204       9.970e-01      -1.568e+00       2.127e-02          -0.057          -0.026           0.998       5.790e-02          0.1309
 205       8.724e-01      -1.568e+00       1.363e-02          -0.077          -0.035           0.996       4.401e-02          0.0136
 206       7.812e-01      -1.568e+00       6.383e-03          -0.091          -0.041           0.995       2.751e-02         -0.1715
 207       7.287e-01      -1.568e+00       1.571e-03          -0.098          -0.044           0.994       9.359e-03         -0.6144
Strip 17
 208       1.977e+00      -1.128e+00       3.508e-04           0.066           0.030           0.997       9.527e-03          0.0631
 209       1.946e+00      -1.128e+00       2.388e-03           0.063           0.028           0.998       2.802e-02          0.1053
 210       1.873e+00      -1.128e+00       6.763e-03           0.056           0.026           0.998       4.487e-02          0.1463
 211       1.765e+00      -1.128e+00       1.261e-02           0.048           0.022           0.999       5.909e-02          0.1798
 212       1.626e+00      -1.128e+00       1.878e-02           0.037           0.017           0.999       6.986e-02          0.2053
 213       1.465e+00      -1.128e+00       2.415e-02           0.024           0.011           1.000       7.657e-02          0.2223
 214       1.292e+00      -1.128e+00       2.778e-02           0.011           0.005           1.000       7.884e-02          0.2375
 215       1.116e+00      -1.128e+00       2.901e-02          -0.006          -0.003           1.000       7.654e-02          0.2486
 216       9.477e-01      -1.128e+00       2.700e-02          -0.033          -0.015           0.999       6.985e-02          0.2071
 217       7.969e-01      -1.128e+00       2.127e-02          -0.057          -0.026           0.998       5.912e-02          0.1261
 218       6.723e-01      -1.128e+00       1.363e-02          -0.077          -0.035           0.996       4.494e-02          0.0064
 219       5.811e-01      -1.128e+00       6.383e-03          -0.091          -0.041           0.995       2.809e-02         -0.1836
 220       5.286e-01      -1.128e+00       1.571e-03          -0.098          -0.044           0.994       9.557e-03         -0.6436
Strip 18
 221       1.774e+00      -6.797e-01       3.508e-04           0.066           0.030           0.997       9.659e-03          0.0635
 222       1.742e+00      -6.797e-01       2.388e-03           0.063           0.028           0.998       2.841e-02          0.1061
 223       1.670e+00      -6.797e-01       6.763e-03           0.056           0.026           0.998       4.549e-02          0.1472
 224       1.561e+00      -6.797e-01       1.261e-02           0.048           0.022           0.999       5.991e-02          0.1807
 225       1.422e+00      -6.797e-01       1.878e-02           0.037           0.017           0.999       7.083e-02          0.2060
 226       1.262e+00      -6.797e-01       2.415e-02           0.024           0.011           1.000       7.763e-02          0.2221
 227       1.088e+00      -6.797e-01       2.778e-02           0.011           0.005           1.000       7.993e-02          0.2358
 228       9.124e-01      -6.797e-01       2.901e-02          -0.006          -0.003           1.000       7.761e-02          0.2450
 229       7.441e-01      -6.797e-01       2.700e-02          -0.033          -0.015           0.999       7.082e-02          0.2014
 230       5.933e-01      -6.797e-01       2.127e-02          -0.057          -0.026           0.998       5.994e-02          0.1178
 231       4.686e-01      -6.797e-01       1.363e-02          -0.077          -0.035           0.996       4.557e-02         -0.0057
 232       3.774e-01      -6.797e-01       6.383e-03          -0.091          -0.041           0.995       2.848e-02         -0.2035
 233       3.250e-01      -6.797e-01       1.571e-03          -0.098          -0.044           0.994       9.690e-03         -0.6910
Strip 19
 234       1.568e+00      -2.271e-01       3.508e-04           0.066           0.030           0.997       9.726e-03          0.0662
 235       1.536e+00      -2.271e-01       2.388e-03           0.063           0.028           0.998       2.861e-02          0.1106
 236       1.464e+00      -2.271e-01       6.763e-03           0.056           0.026           0.998       4.580e-02          0.1531
 237       1.355e+00      -2.271e-01       1.261e-02           0.048           0.022           0.999       6.032e-02          0.1867
 238       1.217e+00      -2.271e-01       1.878e-02           0.037           0.017           0.999       7.132e-02          0.2102
 239       1.056e+00      -2.271e-01       2.415e-02           0.024           0.011           1.000       7.817e-02          0.2231
 240       8.825e-01      -2.271e-01       2.778e-02           0.011           0.005           1.000       8.048e-02          0.2326
 241       7.066e-01      -2.271e-01       2.901e-02          -0.006          -0.003           1.000       7.814e-02          0.2371
 242       5.384e-01      -2.271e-01       2.700e-02          -0.033          -0.015           0.999       7.130e-02          0.1888
 243       3.875e-01      -2.271e-01       2.127e-02          -0.057          -0.026           0.998       6.036e-02          0.1013
 244       2.629e-01      -2.271e-01       1.363e-02          -0.077          -0.035           0.996       4.588e-02         -0.0264
 245       1.717e-01      -2.271e-01       6.383e-03          -0.091          -0.041           0.995       2.868e-02         -0.2335
 246       1.192e-01      -2.271e-01       1.571e-03          -0.098          -0.044           0.994       9.757e-03         -0.7583
Strip 20
 247       1.568e+00       2.271e-01       3.508e-04           0.066          -0.030           0.997       9.726e-03          0.0662
 248       1.536e+00       2.271e-01       2.388e-03           0.063          -0.028           0.998       2.861e-02          0.1106
 249       1.464e+00       2.271e-01       6.763e-03           0.056          -0.026           0.998       4.580e-02          0.1531
 250       1.355e+00       2.271e-01       1.261e-02           0.048          -0.022           0.999       6.032e-02          0.1867
 251       1.217e+00       2.271e-01       1.878e-02           0.037          -0.017           0.999       7.132e-02          0.2102
 252       1.056e+00       2.271e-01       2.415e-02           0.024          -0.011           1.000       7.817e-02          0.2231
 253       8.825e-01       2.271e-01       2.778e-02           0.011          -0.005           1.000       8.048e-02          0.2326
 254       7.066e-01       2.271e-01       2.901e-02          -0.006           0.003           1.000       7.814e-02          0.2371
 255       5.384e-01       2.271e-01       2.700e-02          -0.033           0.015           0.999       7.130e-02          0.1888
 256       3.875e-01       2.271e-01       2.127e-02          -0.057           0.026           0.998       6.036e-02          0.1013
 257       2.629e-01       2.271e-01       1.363e-02          -0.077           0.035           0.996       4.588e-02         -0.0264
 258       1.717e-01       2.271e-01       6.383e-03          -0.091           0.041           0.995       2.868e-02         -0.2335
 259       1.192e-01       2.271e-01       1.571e-03          -0.098           0.044           0.994       9.757e-03         -0.7583
Strip 21
 260       1.774e+00       6.797e-01       3.508e-04           0.066          -0.030           0.997       9.659e-03          0.0635
 261       1.742e+00       6.797e-01       2.388e-03           0.063          -0.028           0.998       2.841e-02          0.1061
 262       1.670e+00       6.797e-01       6.763e-03           0.056          -0.026           0.998       4.549e-02          0.1472
 263       1.561e+00       6.797e-01       1.261e-02           0.048          -0.022           0.999       5.991e-02          0.1807
 264       1.422e+00       6.797e-01       1.878e-02           0.037          -0.017           0.999       7.083e-02          0.2060
 265       1.262e+00       6.797e-01       2.415e-02           0.024          -0.011           1.000       7.763e-02          0.2221
 266       1.088e+00       6.797e-01       2.778e-02           0.011          -0.005           1.000       7.993e-02          0.2358
 267       9.124e-01       6.797e-01       2.901e-02          -0.006           0.003           1.000       7.761e-02          0.2450
 268       7.441e-01       6.797e-01       2.700e-02          -0.033           0.015           0.999       7.082e-02          0.2014
 269       5.933e-01       6.797e-01       2.127e-02          -0.057           0.026           0.998       5.994e-02          0.1178
 270       4.686e-01       6.797e-01       1.363e-02          -0.077           0.035           0.996       4.557e-02         -0.0057
 271       3.774e-01       6.797e-01       6.383e-03          -0.091           0.041           0.995       2.848e-02         -0.2035
 272       3.250e-01       6.797e-01       1.571e-03          -0.098           0.044           0.994       9.690e-03         -0.6910
Strip 22
 273       1.977e+00       1.128e+00       3.508e-04           0.066          -0.030           0.997       9.527e-03          0.0631
 274       1.946e+00       1.128e+00       2.388e-03           0.063          -0.028           0.998       2.802e-02          0.1053
 275       1.873e+00       1.128e+00       6.763e-03           0.056          -0.026           0.998       4.487e-02          0.1463
 276       1.765e+00       1.128e+00       1.261e-02           0.048          -0.022           0.999       5.909e-02          0.1798
 277       1.626e+00       1.128e+00       1.878e-02           0.037          -0.017           0.999       6.986e-02          0.2053
 278       1.465e+00       1.128e+00       2.415e-02           0.024          -0.011           1.000       7.657e-02          0.2223
 279       1.292e+00       1.128e+00       2.778e-02           0.011          -0.005           1.000       7.884e-02          0.2375
 280       1.116e+00       1.128e+00       2.901e-02          -0.006           0.003           1.000       7.654e-02          0.2486
 281       9.477e-01       1.128e+00       2.700e-02          -0.033           0.015           0.999       6.985e-02          0.2071
 282       7.969e-01       1.128e+00       2.127e-02          -0.057           0.026           0.998       5.912e-02          0.1261
 283       6.723e-01       1.128e+00       1.363e-02          -0.077           0.035           0.996       4.494e-02          0.0064
 284       5.811e-01       1.128e+00       6.383e-03          -0.091           0.041           0.995       2.809e-02         -0.1836
 285       5.286e-01       1.128e+00       1.571e-03          -0.098           0.044           0.994       9.557e-03         -0.6436
Strip 23
 286       2.177e+00       1.568e+00       3.508e-04           0.066          -0.030           0.997       9.329e-03          0.0630
 287       2.146e+00       1.568e+00       2.388e-03           0.063          -0.028           0.998       2.744e-02          0.1052
 288       2.073e+00       1.568e+00       6.763e-03           0.056          -0.026           0.998       4.394e-02          0.1461
 289       1.965e+00       1.568e+00       1.261e-02           0.048          -0.022           0.999       5.786e-02          0.1797
 290       1.826e+00       1.568e+00       1.878e-02           0.037          -0.017           0.999       6.841e-02          0.2055
 291       1.665e+00       1.568e+00       2.415e-02           0.024          -0.011           1.000       7.498e-02          0.2229
 292       1.492e+00       1.568e+00       2.778e-02           0.011          -0.005           1.000       7.720e-02          0.2387
 293       1.316e+00       1.568e+00       2.901e-02          -0.006           0.003           1.000       7.496e-02          0.2506
 294       1.148e+00       1.568e+00       2.700e-02          -0.033           0.015           0.999       6.840e-02          0.2104
 295       9.970e-01       1.568e+00       2.127e-02          -0.057           0.026           0.998       5.790e-02          0.1309
 296       8.724e-01       1.568e+00       1.363e-02          -0.077           0.035           0.996       4.401e-02          0.0136
 297       7.812e-01       1.568e+00       6.383e-03          -0.091           0.041           0.995       2.751e-02         -0.1715
 298       7.287e-01       1.568e+00       1.571e-03          -0.098           0.044           0.994       9.359e-03         -0.6144
Strip 24
 299       2.373e+00       1.998e+00       3.508e-04           0.066          -0.030           0.997       9.068e-03          0.0629
 300       2.341e+00       1.998e+00       2.388e-03           0.063          -0.028           0.998       2.667e-02          0.1051
 301       2.269e+00       1.998e+00       6.763e-03           0.056          -0.026           0.998       4.271e-02          0.1460
 302       2.160e+00       1.998e+00       1.261e-02           0.048          -0.022           0.999       5.624e-02          0.1796
 303       2.021e+00       1.998e+00       1.878e-02           0.037          -0.017           0.999       6.649e-02          0.2055
 304       1.861e+00       1.998e+00       2.415e-02           0.024          -0.011           1.000       7.288e-02          0.2231
 305       1.687e+00       1.998e+00       2.778e-02           0.011          -0.005           1.000       7.504e-02          0.2393
 306       1.511e+00       1.998e+00       2.901e-02          -0.006           0.003           1.000       7.286e-02          0.2518
 307       1.343e+00       1.998e+00       2.700e-02          -0.033           0.015           0.999       6.648e-02          0.2122
 308       1.192e+00       1.998e+00       2.127e-02          -0.057           0.026           0.998       5.628e-02          0.1336
 309       1.068e+00       1.998e+00       1.363e-02          -0.077           0.035           0.996       4.278e-02          0.0178
 310       9.765e-01       1.998e+00       6.383e-03          -0.091           0.041           0.995       2.674e-02         -0.1643
 311       9.240e-01       1.998e+00       1.571e-03          -0.098           0.044           0.994       9.097e-03         -0.5970
Strip 25
 312       2.562e+00       2.414e+00       3.508e-04           0.066          -0.030           0.997       8.745e-03          0.0628
 313       2.530e+00       2.414e+00       2.388e-03           0.063          -0.028           0.998       2.572e-02          0.1049
 314       2.458e+00       2.414e+00       6.763e-03           0.056          -0.026           0.998       4.119e-02          0.1457
 315       2.349e+00       2.414e+00       1.261e-02           0.048          -0.022           0.999       5.424e-02          0.1793
 316       2.210e+00       2.414e+00       1.878e-02           0.037          -0.017           0.999       6.413e-02          0.2053
 317       2.050e+00       2.414e+00       2.415e-02           0.024          -0.011           1.000       7.028e-02          0.2230
 318       1.876e+00       2.414e+00       2.778e-02           0.011          -0.005           1.000       7.237e-02          0.2394
 319       1.700e+00       2.414e+00       2.901e-02          -0.006           0.003           1.000       7.026e-02          0.2522
 320       1.532e+00       2.414e+00       2.700e-02          -0.033           0.015           0.999       6.411e-02          0.2130
 321       1.381e+00       2.414e+00       2.127e-02          -0.057           0.026           0.998       5.427e-02          0.1350
 322       1.257e+00       2.414e+00       1.363e-02          -0.077           0.035           0.996       4.125e-02          0.0200
 323       1.166e+00       2.414e+00       6.383e-03          -0.091           0.041           0.995       2.579e-02         -0.1605
 324       1.113e+00       2.414e+00       1.571e-03          -0.098           0.044           0.994       8.773e-03         -0.5875
Strip 26
 325       2.743e+00       2.813e+00       3.508e-04           0.066          -0.030           0.997       8.362e-03          0.0625
 326       2.712e+00       2.813e+00       2.388e-03           0.063          -0.028           0.998       2.459e-02          0.1045
 327       2.639e+00       2.813e+00       6.763e-03           0.056          -0.026           0.998       3.938e-02          0.1452
 328       2.531e+00       2.813e+00       1.261e-02           0.048          -0.022           0.999       5.186e-02          0.1787
 329       2.392e+00       2.813e+00       1.878e-02           0.037          -0.017           0.999       6.132e-02          0.2046
 330       2.231e+00       2.813e+00       2.415e-02           0.024          -0.011           1.000       6.721e-02          0.2224
 331       2.058e+00       2.813e+00       2.778e-02           0.011          -0.005           1.000       6.920e-02          0.2389
 332       1.882e+00       2.813e+00       2.901e-02          -0.006           0.003           1.000       6.718e-02          0.2518
 333       1.714e+00       2.813e+00       2.700e-02          -0.033           0.015           0.999       6.131e-02          0.2129
 334       1.563e+00       2.813e+00       2.127e-02          -0.057           0.026           0.998       5.189e-02          0.1352
 335       1.438e+00       2.813e+00       1.363e-02          -0.077           0.035           0.996       3.945e-02          0.0206
 336       1.347e+00       2.813e+00       6.383e-03          -0.091           0.041           0.995       2.466e-02         -0.1592
 337       1.295e+00       2.813e+00       1.571e-03          -0.098           0.044           0.994       8.389e-03         -0.5843
Strip 27
 338       2.916e+00       3.193e+00       3.508e-04           0.066          -0.030           0.997       7.922e-03          0.0622
 339       2.884e+00       3.193e+00       2.388e-03           0.063          -0.028           0.998       2.330e-02          0.1039
 340       2.812e+00       3.193e+00       6.763e-03           0.056          -0.026           0.998       3.731e-02          0.1444
 341       2.703e+00       3.193e+00       1.261e-02           0.048          -0.022           0.999       4.913e-02          0.1777
 342       2.565e+00       3.193e+00       1.878e-02           0.037          -0.017           0.999       5.809e-02          0.2035
 343       2.404e+00       3.193e+00       2.415e-02           0.024          -0.011           1.000       6.367e-02          0.2213
 344       2.231e+00       3.193e+00       2.778e-02           0.011          -0.005           1.000       6.556e-02          0.2378
 345       2.055e+00       3.193e+00       2.901e-02          -0.006           0.003           1.000       6.365e-02          0.2508
 346       1.887e+00       3.193e+00       2.700e-02          -0.033           0.015           0.999       5.808e-02          0.2119
 347       1.736e+00       3.193e+00       2.127e-02          -0.057           0.026           0.998       4.916e-02          0.1343
 348       1.611e+00       3.193e+00       1.363e-02          -0.077           0.035           0.996       3.737e-02          0.0198
 349       1.520e+00       3.193e+00       6.383e-03          -0.091           0.041           0.995       2.336e-02         -0.1602
 350       1.467e+00       3.193e+00       1.571e-03          -0.098           0.044           0.994       7.947e-03         -0.5862
Strip 28
 351       3.079e+00       3.552e+00       3.508e-04           0.066          -0.030           0.997       7.428e-03          0.0617
 352       3.047e+00       3.552e+00       2.388e-03           0.063          -0.028           0.998       2.185e-02          0.1030
 353       2.975e+00       3.552e+00       6.763e-03           0.056          -0.026           0.998       3.498e-02          0.1432
 354       2.866e+00       3.552e+00       1.261e-02           0.048          -0.022           0.999       4.607e-02          0.1762
 355       2.728e+00       3.552e+00       1.878e-02           0.037          -0.017           0.999       5.447e-02          0.2018
 356       2.567e+00       3.552e+00       2.415e-02           0.024          -0.011           1.000       5.970e-02          0.2194
 357       2.394e+00       3.552e+00       2.778e-02           0.011          -0.005           1.000       6.147e-02          0.2359
 358       2.218e+00       3.552e+00       2.901e-02          -0.006           0.003           1.000       5.968e-02          0.2490
 359       2.050e+00       3.552e+00       2.700e-02          -0.033           0.015           0.999       5.446e-02          0.2101
 360       1.899e+00       3.552e+00       2.127e-02          -0.057           0.026           0.998       4.610e-02          0.1325
 361       1.774e+00       3.552e+00       1.363e-02          -0.077           0.035           0.996       3.504e-02          0.0177
 362       1.683e+00       3.552e+00       6.383e-03          -0.091           0.041           0.995       2.190e-02         -0.1631
 363       1.630e+00       3.552e+00       1.571e-03          -0.098           0.044           0.994       7.451e-03         -0.5929
Strip 29
 364       3.231e+00       3.886e+00       3.508e-04           0.066          -0.030           0.997       6.883e-03          0.0609
 365       3.199e+00       3.886e+00       2.388e-03           0.063          -0.028           0.998       2.024e-02          0.1017
 366       3.127e+00       3.886e+00       6.763e-03           0.056          -0.026           0.998       3.242e-02          0.1413
 367       3.018e+00       3.886e+00       1.261e-02           0.048          -0.022           0.999       4.269e-02          0.1738
 368       2.880e+00       3.886e+00       1.878e-02           0.037          -0.017           0.999       5.047e-02          0.1992
 369       2.719e+00       3.886e+00       2.415e-02           0.024          -0.011           1.000       5.532e-02          0.2167
 370       2.546e+00       3.886e+00       2.778e-02           0.011          -0.005           1.000       5.696e-02          0.2332
 371       2.370e+00       3.886e+00       2.901e-02          -0.006           0.003           1.000       5.530e-02          0.2462
 372       2.201e+00       3.886e+00       2.700e-02          -0.033           0.015           0.999       5.046e-02          0.2074
 373       2.051e+00       3.886e+00       2.127e-02          -0.057           0.026           0.998       4.272e-02          0.1296
 374       1.926e+00       3.886e+00       1.363e-02          -0.077           0.035           0.996       3.247e-02          0.0143
 375       1.835e+00       3.886e+00       6.383e-03          -0.091           0.041           0.995       2.030e-02         -0.1681
 376       1.782e+00       3.886e+00       1.571e-03          -0.098           0.044           0.994       6.905e-03         -0.6041
Strip 30
 377       3.371e+00       4.193e+00       3.508e-04           0.066          -0.030           0.997       6.291e-03          0.0597
 378       3.339e+00       4.193e+00       2.388e-03           0.063          -0.028           0.998       1.850e-02          0.0996
 379       3.267e+00       4.193e+00       6.763e-03           0.056          -0.026           0.998       2.963e-02          0.1384
 380       3.158e+00       4.193e+00       1.261e-02           0.048          -0.022           0.999       3.902e-02          0.1704
 381       3.019e+00       4.193e+00       1.878e-02           0.037          -0.017           0.999       4.613e-02          0.1953
 382       2.859e+00       4.193e+00       2.415e-02           0.024          -0.011           1.000       5.056e-02          0.2127
 383       2.685e+00       4.193e+00       2.778e-02           0.011          -0.005           1.000       5.206e-02          0.2292
 384       2.509e+00       4.193e+00       2.901e-02          -0.006           0.003           1.000       5.054e-02          0.2424
 385       2.341e+00       4.193e+00       2.700e-02          -0.033           0.015           0.999       4.612e-02          0.2036
 386       2.190e+00       4.193e+00       2.127e-02          -0.057           0.026           0.998       3.904e-02          0.1257
 387       2.066e+00       4.193e+00       1.363e-02          -0.077           0.035           0.996       2.968e-02          0.0097
 388       1.975e+00       4.193e+00       6.383e-03          -0.091           0.041           0.995       1.855e-02         -0.1749
 389       1.922e+00       4.193e+00       1.571e-03          -0.098           0.044           0.994       6.311e-03         -0.6197
Strip 31
 390       3.498e+00       4.472e+00       3.508e-04           0.066          -0.030           0.997       5.656e-03          0.0579
 391       3.466e+00       4.472e+00       2.388e-03           0.063          -0.028           0.998       1.664e-02          0.0966
 392       3.394e+00       4.472e+00       6.763e-03           0.056          -0.026           0.998       2.664e-02          0.1341
 393       3.285e+00       4.472e+00       1.261e-02           0.048          -0.022           0.999       3.508e-02          0.1651
 394       3.146e+00       4.472e+00       1.878e-02           0.037          -0.017           0.999       4.148e-02          0.1896
 395       2.986e+00       4.472e+00       2.415e-02           0.024          -0.011           1.000       4.546e-02          0.2069
 396       2.812e+00       4.472e+00       2.778e-02           0.011          -0.005           1.000       4.681e-02          0.2237
 397       2.636e+00       4.472e+00       2.901e-02          -0.006           0.003           1.000       4.544e-02          0.2372
 398       2.468e+00       4.472e+00       2.700e-02          -0.033           0.015           0.999       4.147e-02          0.1987
 399       2.317e+00       4.472e+00       2.127e-02          -0.057           0.026           0.998       3.510e-02          0.1207
 400       2.193e+00       4.472e+00       1.363e-02          -0.077           0.035           0.996       2.668e-02          0.0039
 401       2.101e+00       4.472e+00       6.383e-03          -0.091           0.041           0.995       1.668e-02         -0.1833
 402       2.049e+00       4.472e+00       1.571e-03          -0.098           0.044           0.994       5.674e-03         -0.6390
Strip 32
 403       3.610e+00       4.721e+00       3.508e-04           0.066          -0.030           0.997       4.983e-03          0.0553
 404       3.579e+00       4.721e+00       2.388e-03           0.063          -0.028           0.998       1.466e-02          0.0921
 405       3.506e+00       4.721e+00       6.763e-03           0.056          -0.026           0.998       2.347e-02          0.1278
 406       3.398e+00       4.721e+00       1.261e-02           0.048          -0.022           0.999       3.090e-02          0.1573
 407       3.259e+00       4.721e+00       1.878e-02           0.037          -0.017           0.999       3.654e-02          0.1810
 408       3.098e+00       4.721e+00       2.415e-02           0.024          -0.011           1.000       4.005e-02          0.1983
 409       2.925e+00       4.721e+00       2.778e-02           0.011          -0.005           1.000       4.123e-02          0.2158
 410       2.749e+00       4.721e+00       2.901e-02          -0.006           0.003           1.000       4.003e-02          0.2303
 411       2.581e+00       4.721e+00       2.700e-02          -0.033           0.015           0.999       3.653e-02          0.1926
 412       2.430e+00       4.721e+00       2.127e-02          -0.057           0.026           0.998       3.092e-02          0.1147
 413       2.305e+00       4.721e+00       1.363e-02          -0.077           0.035           0.996       2.351e-02         -0.0028
 414       2.214e+00       4.721e+00       6.383e-03          -0.091           0.041           0.995       1.469e-02         -0.1929
 415       2.162e+00       4.721e+00       1.571e-03          -0.098           0.044           0.994       4.999e-03         -0.6608
Strip 33
 416       3.709e+00       4.937e+00       3.508e-04           0.066          -0.030           0.997       4.275e-03          0.0516
 417       3.677e+00       4.937e+00       2.388e-03           0.063          -0.028           0.998       1.257e-02          0.0857
 418       3.605e+00       4.937e+00       6.763e-03           0.056          -0.026           0.998       2.013e-02          0.1187
 419       3.496e+00       4.937e+00       1.261e-02           0.048          -0.022           0.999       2.651e-02          0.1461
 420       3.357e+00       4.937e+00       1.878e-02           0.037          -0.017           0.999       3.135e-02          0.1684
 421       3.197e+00       4.937e+00       2.415e-02           0.024          -0.011           1.000       3.436e-02          0.1855
 422       3.023e+00       4.937e+00       2.778e-02           0.011          -0.005           1.000       3.538e-02          0.2042
 423       2.847e+00       4.937e+00       2.901e-02          -0.006           0.003           1.000       3.435e-02          0.2209
 424       2.679e+00       4.937e+00       2.700e-02          -0.033           0.015           0.999       3.134e-02          0.1851
 425       2.528e+00       4.937e+00       2.127e-02          -0.057           0.026           0.998       2.653e-02          0.1084
 426       2.404e+00       4.937e+00       1.363e-02          -0.077           0.035           0.996       2.017e-02         -0.0096
 427       2.313e+00       4.937e+00       6.383e-03          -0.091           0.041           0.995       1.261e-02         -0.2025
 428       2.260e+00       4.937e+00       1.571e-03          -0.098           0.044           0.994       4.289e-03         -0.6827
Strip 34
 429       3.792e+00       5.119e+00       3.508e-04           0.066          -0.030           0.997       3.538e-03          0.0468
 430       3.760e+00       5.119e+00       2.388e-03           0.063          -0.028           0.998       1.041e-02          0.0774
 431       3.688e+00       5.119e+00       6.763e-03           0.056          -0.026           0.998       1.666e-02          0.1067
 432       3.579e+00       5.119e+00       1.261e-02           0.048          -0.022           0.999       2.195e-02          0.1308
 433       3.440e+00       5.119e+00       1.878e-02           0.037          -0.017           0.999       2.595e-02          0.1508
 434       3.280e+00       5.119e+00       2.415e-02           0.024          -0.011           1.000       2.844e-02          0.1670
 435       3.106e+00       5.119e+00       2.778e-02           0.011          -0.005           1.000       2.928e-02          0.1868
 436       2.930e+00       5.119e+00       2.901e-02          -0.006           0.003           1.000       2.843e-02          0.2070
 437       2.762e+00       5.119e+00       2.700e-02          -0.033           0.015           0.999       2.594e-02          0.1760
 438       2.611e+00       5.119e+00       2.127e-02          -0.057           0.026           0.998       2.196e-02          0.1024
 439       2.487e+00       5.119e+00       1.363e-02          -0.077           0.035           0.996       1.669e-02         -0.0149
 440       2.395e+00       5.119e+00       6.383e-03          -0.091           0.041           0.995       1.043e-02         -0.2101
 441       2.343e+00       5.119e+00       1.571e-03          -0.098           0.044           0.994       3.550e-03         -0.7002
Strip 35
 442       3.859e+00       5.267e+00       3.508e-04           0.066          -0.030           0.997       2.777e-03          0.0409
 443       3.827e+00       5.267e+00       2.388e-03           0.063          -0.028           0.998       8.169e-03          0.0671
 444       3.755e+00       5.267e+00       6.763e-03           0.056          -0.026           0.998       1.308e-02          0.0917
 445       3.646e+00       5.267e+00       1.261e-02           0.048          -0.022           0.999       1.723e-02          0.1117
 446       3.507e+00       5.267e+00       1.878e-02           0.037          -0.017           0.999       2.037e-02          0.1282
 447       3.347e+00       5.267e+00       2.415e-02           0.024          -0.011           1.000       2.232e-02          0.1421
 448       3.173e+00       5.267e+00       2.778e-02           0.011          -0.005           1.000       2.298e-02          0.1617
 449       2.997e+00       5.267e+00       2.901e-02          -0.006           0.003           1.000       2.232e-02          0.1856
 450       2.829e+00       5.267e+00       2.700e-02          -0.033           0.015           0.999       2.036e-02          0.1627
 451       2.678e+00       5.267e+00       2.127e-02          -0.057           0.026           0.998       1.724e-02          0.0977
 452       2.554e+00       5.267e+00       1.363e-02          -0.077           0.035           0.996       1.310e-02         -0.0158
 453       2.463e+00       5.267e+00       6.383e-03          -0.091           0.041           0.995       8.190e-03         -0.2117
 454       2.410e+00       5.267e+00       1.571e-03          -0.098           0.044           0.994       2.786e-03         -0.7056
Strip 36
 455       3.909e+00       5.378e+00       3.508e-04           0.066          -0.030           0.997       1.998e-03          0.0339
 456       3.878e+00       5.378e+00       2.388e-03           0.063          -0.028           0.998       5.875e-03          0.0548
 457       3.805e+00       5.378e+00       6.763e-03           0.056          -0.026           0.998       9.408e-03          0.0740
 458       3.697e+00       5.378e+00       1.261e-02           0.048          -0.022           0.999       1.239e-02          0.0891
 459       3.558e+00       5.378e+00       1.878e-02           0.037          -0.017           0.999       1.465e-02          0.1015
 460       3.397e+00       5.378e+00       2.415e-02           0.024          -0.011           1.000       1.605e-02          0.1120
 461       3.224e+00       5.378e+00       2.778e-02           0.011          -0.005           1.000       1.653e-02          0.1288
 462       3.048e+00       5.378e+00       2.901e-02          -0.006           0.003           1.000       1.605e-02          0.1537
 463       2.880e+00       5.378e+00       2.700e-02          -0.033           0.015           0.999       1.465e-02          0.1400
 464       2.729e+00       5.378e+00       2.127e-02          -0.057           0.026           0.998       1.240e-02          0.0918
 465       2.604e+00       5.378e+00       1.363e-02          -0.077           0.035           0.996       9.423e-03         -0.0071
 466       2.513e+00       5.378e+00       6.383e-03          -0.091           0.041           0.995       5.891e-03         -0.1997
 467       2.461e+00       5.378e+00       1.571e-03          -0.098           0.044           0.994       2.004e-03         -0.6864
Strip 37
 468       3.943e+00       5.453e+00       3.508e-04           0.066          -0.030           0.997       1.204e-03          0.0256
 469       3.912e+00       5.453e+00       2.388e-03           0.063          -0.028           0.998       3.541e-03          0.0406
 470       3.839e+00       5.453e+00       6.763e-03           0.056          -0.026           0.998       5.670e-03          0.0537
 471       3.731e+00       5.453e+00       1.261e-02           0.048          -0.022           0.999       7.468e-03          0.0637
 472       3.592e+00       5.453e+00       1.878e-02           0.037          -0.017           0.999       8.829e-03          0.0719
 473       3.431e+00       5.453e+00       2.415e-02           0.024          -0.011           1.000       9.677e-03          0.0787
 474       3.258e+00       5.453e+00       2.778e-02           0.011          -0.005           1.000       9.964e-03          0.0909
 475       3.082e+00       5.453e+00       2.901e-02          -0.006           0.003           1.000       9.674e-03          0.1118
 476       2.914e+00       5.453e+00       2.700e-02          -0.033           0.015           0.999       8.827e-03          0.1046
 477       2.763e+00       5.453e+00       2.127e-02          -0.057           0.026           0.998       7.472e-03          0.0750
 478       2.638e+00       5.453e+00       1.363e-02          -0.077           0.035           0.996       5.680e-03          0.0101
 479       2.547e+00       5.453e+00       6.383e-03          -0.091           0.041           0.995       3.550e-03         -0.1570
 480       2.495e+00       5.453e+00       1.571e-03          -0.098           0.044           0.994       1.208e-03         -0.6226
Strip 38
 481       3.960e+00       5.491e+00       3.508e-04           0.066          -0.030           0.997       4.023e-04          0.0176
 482       3.929e+00       5.491e+00       2.388e-03           0.063          -0.028           0.998       1.183e-03          0.0249
 483       3.856e+00       5.491e+00       6.763e-03           0.056          -0.026           0.998       1.894e-03          0.0320
 484       3.748e+00       5.491e+00       1.261e-02           0.048          -0.022           0.999       2.495e-03          0.0374
 485       3.609e+00       5.491e+00       1.878e-02           0.037          -0.017           0.999       2.950e-03          0.0421
 486       3.448e+00       5.491e+00       2.415e-02           0.024          -0.011           1.000       3.233e-03          0.0459
 487       3.275e+00       5.491e+00       2.778e-02           0.011          -0.005           1.000       3.329e-03          0.0531
 488       3.099e+00       5.491e+00       2.901e-02          -0.006           0.003           1.000       3.232e-03          0.0661
 489       2.931e+00       5.491e+00       2.700e-02          -0.033           0.015           0.999       2.949e-03          0.0624
 490       2.780e+00       5.491e+00       2.127e-02          -0.057           0.026           0.998       2.496e-03          0.0463
 491       2.655e+00       5.491e+00       1.363e-02          -0.077           0.035           0.996       1.898e-03          0.0123
 492       2.564e+00       5.491e+00       6.383e-03          -0.091           0.041           0.995       1.186e-03         -0.0751
 493       2.512e+00       5.491e+00       1.571e-03          -0.098           0.044           0.994       4.035e-04         -0.4714










