xflr5 v6.47

Flying_wing_5
T1-55.0 m/s-VLM2-Inviscid
QInf  =   55.000000 m/s
Alpha =    0.000000
Beta  =    0.000°
Phi   =    0.000°
Ctrl  =    0.000
CL    =    0.150394
Cy    =    0.000000
Cd    =    0.001050     ICd   =    0.001050     PCd   =    0.000000
Cl   = 8.71409e-17
Cm   =  -0.0183502
ICn   =   -0.000000     PCn   =   -0.000000 
XCP   =    1.799017     YCP   =   -0.000000     ZCP   =    0.025442  
XNP   =    0.000000
Bending = 5385.280923

Main Wing
  y-span        Chord      Ai         Cl        PCd          ICd        CmGeom    CmAirf@chord/4    XTrtop    XTrBot      XCP       BM
   -5.4906     1.4700    -1.510    0.032366    0.000000    0.000849   -0.028878   -0.012565     0.0000    0.0000    0.6400    0.0000
   -5.4531     1.4700    -1.414    0.054880    0.000000    0.001354   -0.048352   -0.021085     0.0000    0.0000    0.6344    0.0622
   -5.3783     1.4700    -1.287    0.077068    0.000000    0.001731   -0.065843   -0.028963     0.0000    0.0000    0.6259    0.8152
   -5.2668     1.4700    -1.145    0.096610    0.000000    0.001930   -0.079010   -0.035438     0.0000    0.0000    0.6168    4.1242
   -5.1194     1.4700    -0.999    0.112988    0.000000    0.001971   -0.087252   -0.040413     0.0000    0.0000    0.6077   13.5405
   -4.9369     1.4700    -0.861    0.126206    0.000000    0.001896   -0.090629   -0.044005     0.0000    0.0000    0.5987   34.4787
   -4.7208     1.4700    -0.736    0.136579    0.000000    0.001755   -0.089612   -0.046458     0.0000    0.0000    0.5902   74.1405
   -4.4723     1.4700    -0.631    0.144576    0.000000    0.001591   -0.084866   -0.048069     0.0000    0.0000    0.5825   141.2483
   -4.1934     1.4700    -0.544    0.150672    0.000000    0.001432   -0.077061   -0.049111     0.0000    0.0000    0.5760   245.6611
   -3.8858     1.4700    -0.476    0.155260    0.000000    0.001290   -0.066778   -0.049791     0.0000    0.0000    0.5707   397.9284
   -3.5516     1.4700    -0.422    0.158633    0.000000    0.001168   -0.054489   -0.050246     0.0000    0.0000    0.5667   608.8113
   -3.1932     1.4700    -0.379    0.160994    0.000000    0.001066   -0.040593   -0.050561     0.0000    0.0000    0.5641   888.7885
   -2.8130     1.4700    -0.345    0.162472    0.000000    0.000979   -0.025446   -0.050787     0.0000    0.0000    0.5626   1247.5625
   -2.4135     1.4700    -0.318    0.163136    0.000000    0.000905   -0.009396   -0.050961     0.0000    0.0000    0.5624   1693.5789
   -1.9976     1.4700    -0.295    0.162991    0.000000    0.000839    0.007187   -0.051110     0.0000    0.0000    0.5636   2233.5707
   -1.5680     1.4700    -0.274    0.161968    0.000000    0.000774    0.023870   -0.051273     0.0000    0.0000    0.5666   2872.1358
   -1.1277     1.4700    -0.249    0.159898    0.000000    0.000694    0.040075   -0.051523     0.0000    0.0000    0.5722   3611.3492
   -0.6797     1.4700    -0.205    0.156475    0.000000    0.000559    0.054915   -0.052063     0.0000    0.0000    0.5827   4450.4049
   -0.2271     1.4700    -0.075    0.151377    0.000000    0.000197    0.066897   -0.053545     0.0000    0.0000    0.6037   5385.2809
    0.2271     1.4700    -0.075    0.151377    0.000000    0.000197    0.066897   -0.053545     0.0000    0.0000    0.6037   5385.2809
    0.6797     1.4700    -0.205    0.156475    0.000000    0.000559    0.054915   -0.052063     0.0000    0.0000    0.5827   4450.4049
    1.1277     1.4700    -0.249    0.159898    0.000000    0.000694    0.040075   -0.051523     0.0000    0.0000    0.5722   3611.3492
    1.5680     1.4700    -0.274    0.161968    0.000000    0.000774    0.023870   -0.051273     0.0000    0.0000    0.5666   2872.1358
    1.9976     1.4700    -0.295    0.162991    0.000000    0.000839    0.007187   -0.051110     0.0000    0.0000    0.5636   2233.5707
    2.4135     1.4700    -0.318    0.163136    0.000000    0.000905   -0.009396   -0.050961     0.0000    0.0000    0.5624   1693.5789
    2.8130     1.4700    -0.345    0.162472    0.000000    0.000979   -0.025446   -0.050787     0.0000    0.0000    0.5626   1247.5625
    3.1932     1.4700    -0.379    0.160994    0.000000    0.001066   -0.040593   -0.050561     0.0000    0.0000    0.5641   888.7885
    3.5516     1.4700    -0.422    0.158633    0.000000    0.001168   -0.054489   -0.050246     0.0000    0.0000    0.5667   608.8113
    3.8858     1.4700    -0.476    0.155260    0.000000    0.001290   -0.066778   -0.049791     0.0000    0.0000    0.5707   397.9284
    4.1934     1.4700    -0.544    0.150672    0.000000    0.001432   -0.077061   -0.049111     0.0000    0.0000    0.5760   245.6611
    4.4723     1.4700    -0.631    0.144576    0.000000    0.001591   -0.084866   -0.048069     0.0000    0.0000    0.5825   141.2483
    4.7208     1.4700    -0.736    0.136579    0.000000    0.001755   -0.089612   -0.046458     0.0000    0.0000    0.5902   74.1405
    4.9369     1.4700    -0.861    0.126206    0.000000    0.001896   -0.090629   -0.044005     0.0000    0.0000    0.5987   34.4787
    5.1194     1.4700    -0.999    0.112988    0.000000    0.001971   -0.087252   -0.040413     0.0000    0.0000    0.6077   13.5405
    5.2668     1.4700    -1.145    0.096610    0.000000    0.001930   -0.079010   -0.035438     0.0000    0.0000    0.6168    4.1242
    5.3783     1.4700    -1.287    0.077068    0.000000    0.001731   -0.065843   -0.028963     0.0000    0.0000    0.6259    0.8152
    5.4531     1.4700    -1.414    0.054880    0.000000    0.001354   -0.048352   -0.021085     0.0000    0.0000    0.6344    0.0622
    5.4906     1.4700    -1.510    0.032366    0.000000    0.000849   -0.028878   -0.012565     0.0000    0.0000    0.6400    0.0000


Main Wing Cp Coefficients
 Panel     CtrlPt.x        CtrlPt.y        CtrlPt.z       Nx      Ny       Nz        Area       Cp
Main WingCp Coefficients
Strip 1
   0       3.461e+00      -5.491e+00       3.508e-04           0.066           0.024           0.998       4.022e-04          0.0186
   1       3.430e+00      -5.491e+00       2.388e-03           0.063           0.023           0.998       1.183e-03          0.0262
   2       3.357e+00      -5.491e+00       6.763e-03           0.056           0.021           0.998       1.894e-03          0.0334
   3       3.249e+00      -5.491e+00       1.261e-02           0.048           0.017           0.999       2.495e-03          0.0388
   4       3.110e+00      -5.491e+00       1.878e-02           0.037           0.013           0.999       2.950e-03          0.0433
   5       2.949e+00      -5.491e+00       2.415e-02           0.024           0.009           1.000       3.233e-03          0.0470
   6       2.776e+00      -5.491e+00       2.778e-02           0.011           0.004           1.000       3.329e-03          0.0539
   7       2.600e+00      -5.491e+00       2.901e-02          -0.006          -0.002           1.000       3.232e-03          0.0665
   8       2.432e+00      -5.491e+00       2.700e-02          -0.033          -0.012           0.999       2.949e-03          0.0619
   9       2.281e+00      -5.491e+00       2.127e-02          -0.057          -0.021           0.998       2.496e-03          0.0445
  10       2.156e+00      -5.491e+00       1.363e-02          -0.077          -0.028           0.997       1.897e-03          0.0087
  11       2.065e+00      -5.491e+00       6.383e-03          -0.091          -0.033           0.995       1.186e-03         -0.0817
  12       2.013e+00      -5.491e+00       1.571e-03          -0.098          -0.035           0.995       4.034e-04         -0.4819
Strip 2
  13       3.448e+00      -5.453e+00       3.508e-04           0.066           0.024           0.998       1.204e-03          0.0272
  14       3.416e+00      -5.453e+00       2.388e-03           0.063           0.023           0.998       3.541e-03          0.0428
  15       3.344e+00      -5.453e+00       6.763e-03           0.056           0.021           0.998       5.670e-03          0.0561
  16       3.235e+00      -5.453e+00       1.261e-02           0.048           0.017           0.999       7.467e-03          0.0660
  17       3.096e+00      -5.453e+00       1.878e-02           0.037           0.013           0.999       8.828e-03          0.0740
  18       2.936e+00      -5.453e+00       2.415e-02           0.024           0.009           1.000       9.677e-03          0.0805
  19       2.762e+00      -5.453e+00       2.778e-02           0.011           0.004           1.000       9.964e-03          0.0923
  20       2.586e+00      -5.453e+00       2.901e-02          -0.006          -0.002           1.000       9.674e-03          0.1125
  21       2.418e+00      -5.453e+00       2.700e-02          -0.033          -0.012           0.999       8.827e-03          0.1037
  22       2.267e+00      -5.453e+00       2.127e-02          -0.057          -0.021           0.998       7.471e-03          0.0721
  23       2.143e+00      -5.453e+00       1.363e-02          -0.077          -0.028           0.997       5.679e-03          0.0047
  24       2.051e+00      -5.453e+00       6.383e-03          -0.091          -0.033           0.995       3.549e-03         -0.1657
  25       1.999e+00      -5.453e+00       1.571e-03          -0.098          -0.035           0.995       1.207e-03         -0.6493
Strip 3
  26       3.420e+00      -5.378e+00       3.508e-04           0.066           0.024           0.998       1.997e-03          0.0356
  27       3.389e+00      -5.378e+00       2.388e-03           0.063           0.023           0.998       5.874e-03          0.0575
  28       3.316e+00      -5.378e+00       6.763e-03           0.056           0.021           0.998       9.407e-03          0.0771
  29       3.208e+00      -5.378e+00       1.261e-02           0.048           0.017           0.999       1.239e-02          0.0922
  30       3.069e+00      -5.378e+00       1.878e-02           0.037           0.013           0.999       1.465e-02          0.1044
  31       2.908e+00      -5.378e+00       2.415e-02           0.024           0.009           1.000       1.605e-02          0.1143
  32       2.735e+00      -5.378e+00       2.778e-02           0.011           0.004           1.000       1.653e-02          0.1306
  33       2.559e+00      -5.378e+00       2.901e-02          -0.006          -0.002           1.000       1.605e-02          0.1546
  34       2.391e+00      -5.378e+00       2.700e-02          -0.033          -0.012           0.999       1.464e-02          0.1390
  35       2.240e+00      -5.378e+00       2.127e-02          -0.057          -0.021           0.998       1.240e-02          0.0885
  36       2.115e+00      -5.378e+00       1.363e-02          -0.077          -0.028           0.997       9.421e-03         -0.0130
  37       2.024e+00      -5.378e+00       6.383e-03          -0.091          -0.033           0.995       5.889e-03         -0.2129
  38       1.972e+00      -5.378e+00       1.571e-03          -0.098          -0.035           0.995       2.003e-03         -0.7247
Strip 4
  39       3.380e+00      -5.267e+00       3.508e-04           0.066           0.024           0.998       2.777e-03          0.0427
  40       3.348e+00      -5.267e+00       2.388e-03           0.063           0.023           0.998       8.168e-03          0.0699
  41       3.276e+00      -5.267e+00       6.763e-03           0.056           0.021           0.998       1.308e-02          0.0952
  42       3.167e+00      -5.267e+00       1.261e-02           0.048           0.017           0.999       1.722e-02          0.1153
  43       3.029e+00      -5.267e+00       1.878e-02           0.037           0.013           0.999       2.037e-02          0.1315
  44       2.868e+00      -5.267e+00       2.415e-02           0.024           0.009           1.000       2.232e-02          0.1448
  45       2.695e+00      -5.267e+00       2.778e-02           0.011           0.004           1.000       2.298e-02          0.1637
  46       2.519e+00      -5.267e+00       2.901e-02          -0.006          -0.002           1.000       2.232e-02          0.1869
  47       2.350e+00      -5.267e+00       2.700e-02          -0.033          -0.012           0.999       2.036e-02          0.1622
  48       2.200e+00      -5.267e+00       2.127e-02          -0.057          -0.021           0.998       1.723e-02          0.0949
  49       2.075e+00      -5.267e+00       1.363e-02          -0.077          -0.028           0.997       1.310e-02         -0.0226
  50       1.984e+00      -5.267e+00       6.383e-03          -0.091          -0.033           0.995       8.188e-03         -0.2280
  51       1.931e+00      -5.267e+00       1.571e-03          -0.098          -0.035           0.995       2.785e-03         -0.7509
Strip 5
  52       3.326e+00      -5.119e+00       3.508e-04           0.066           0.024           0.998       3.538e-03          0.0486
  53       3.295e+00      -5.119e+00       2.388e-03           0.063           0.023           0.998       1.041e-02          0.0802
  54       3.222e+00      -5.119e+00       6.763e-03           0.056           0.021           0.998       1.666e-02          0.1102
  55       3.114e+00      -5.119e+00       1.261e-02           0.048           0.017           0.999       2.194e-02          0.1346
  56       2.975e+00      -5.119e+00       1.878e-02           0.037           0.013           0.999       2.595e-02          0.1543
  57       2.814e+00      -5.119e+00       2.415e-02           0.024           0.009           1.000       2.844e-02          0.1699
  58       2.641e+00      -5.119e+00       2.778e-02           0.011           0.004           1.000       2.928e-02          0.1892
  59       2.465e+00      -5.119e+00       2.901e-02          -0.006          -0.002           1.000       2.843e-02          0.2090
  60       2.297e+00      -5.119e+00       2.700e-02          -0.033          -0.012           0.999       2.594e-02          0.1764
  61       2.146e+00      -5.119e+00       2.127e-02          -0.057          -0.021           0.998       2.196e-02          0.1001
  62       2.021e+00      -5.119e+00       1.363e-02          -0.077          -0.028           0.997       1.669e-02         -0.0223
  63       1.930e+00      -5.119e+00       6.383e-03          -0.091          -0.033           0.995       1.043e-02         -0.2277
  64       1.878e+00      -5.119e+00       1.571e-03          -0.098          -0.035           0.995       3.548e-03         -0.7486
Strip 6
  65       3.260e+00      -4.937e+00       3.508e-04           0.066           0.024           0.998       4.274e-03          0.0533
  66       3.228e+00      -4.937e+00       2.388e-03           0.063           0.023           0.998       1.257e-02          0.0884
  67       3.156e+00      -4.937e+00       6.763e-03           0.056           0.021           0.998       2.013e-02          0.1222
  68       3.047e+00      -4.937e+00       1.261e-02           0.048           0.017           0.999       2.651e-02          0.1499
  69       2.909e+00      -4.937e+00       1.878e-02           0.037           0.013           0.999       3.135e-02          0.1721
  70       2.748e+00      -4.937e+00       2.415e-02           0.024           0.009           1.000       3.436e-02          0.1889
  71       2.575e+00      -4.937e+00       2.778e-02           0.011           0.004           1.000       3.538e-02          0.2072
  72       2.399e+00      -4.937e+00       2.901e-02          -0.006          -0.002           1.000       3.435e-02          0.2237
  73       2.230e+00      -4.937e+00       2.700e-02          -0.033          -0.012           0.999       3.134e-02          0.1864
  74       2.080e+00      -4.937e+00       2.127e-02          -0.057          -0.021           0.998       2.653e-02          0.1064
  75       1.955e+00      -4.937e+00       1.363e-02          -0.077          -0.028           0.997       2.016e-02         -0.0169
  76       1.864e+00      -4.937e+00       6.383e-03          -0.091          -0.033           0.995       1.260e-02         -0.2202
  77       1.811e+00      -4.937e+00       1.571e-03          -0.098          -0.035           0.995       4.287e-03         -0.7313
Strip 7
  78       3.181e+00      -4.721e+00       3.508e-04           0.066           0.024           0.998       4.982e-03          0.0569
  79       3.150e+00      -4.721e+00       2.388e-03           0.063           0.023           0.998       1.465e-02          0.0947
  80       3.077e+00      -4.721e+00       6.763e-03           0.056           0.021           0.998       2.346e-02          0.1312
  81       2.969e+00      -4.721e+00       1.261e-02           0.048           0.017           0.999       3.090e-02          0.1612
  82       2.830e+00      -4.721e+00       1.878e-02           0.037           0.013           0.999       3.654e-02          0.1850
  83       2.669e+00      -4.721e+00       2.415e-02           0.024           0.009           1.000       4.005e-02          0.2021
  84       2.496e+00      -4.721e+00       2.778e-02           0.011           0.004           1.000       4.123e-02          0.2195
  85       2.320e+00      -4.721e+00       2.901e-02          -0.006          -0.002           1.000       4.003e-02          0.2340
  86       2.152e+00      -4.721e+00       2.700e-02          -0.033          -0.012           0.999       3.653e-02          0.1945
  87       2.001e+00      -4.721e+00       2.127e-02          -0.057          -0.021           0.998       3.092e-02          0.1134
  88       1.876e+00      -4.721e+00       1.363e-02          -0.077          -0.028           0.997       2.350e-02         -0.0096
  89       1.785e+00      -4.721e+00       6.383e-03          -0.091          -0.033           0.995       1.469e-02         -0.2098
  90       1.733e+00      -4.721e+00       1.571e-03          -0.098          -0.035           0.995       4.997e-03         -0.7076
Strip 8
  91       3.091e+00      -4.472e+00       3.508e-04           0.066           0.024           0.998       5.655e-03          0.0595
  92       3.059e+00      -4.472e+00       2.388e-03           0.063           0.023           0.998       1.663e-02          0.0992
  93       2.987e+00      -4.472e+00       6.763e-03           0.056           0.021           0.998       2.664e-02          0.1376
  94       2.878e+00      -4.472e+00       1.261e-02           0.048           0.017           0.999       3.508e-02          0.1692
  95       2.740e+00      -4.472e+00       1.878e-02           0.037           0.013           0.999       4.147e-02          0.1939
  96       2.579e+00      -4.472e+00       2.415e-02           0.024           0.009           1.000       4.546e-02          0.2113
  97       2.406e+00      -4.472e+00       2.778e-02           0.011           0.004           1.000       4.681e-02          0.2281
  98       2.230e+00      -4.472e+00       2.901e-02          -0.006          -0.002           1.000       4.544e-02          0.2416
  99       2.061e+00      -4.472e+00       2.700e-02          -0.033          -0.012           0.999       4.147e-02          0.2013
 100       1.911e+00      -4.472e+00       2.127e-02          -0.057          -0.021           0.998       3.510e-02          0.1200
 101       1.786e+00      -4.472e+00       1.363e-02          -0.077          -0.028           0.997       2.668e-02         -0.0021
 102       1.695e+00      -4.472e+00       6.383e-03          -0.091          -0.033           0.995       1.667e-02         -0.1990
 103       1.642e+00      -4.472e+00       1.571e-03          -0.098          -0.035           0.995       5.672e-03         -0.6830
Strip 9
 104       2.990e+00      -4.193e+00       3.508e-04           0.066           0.024           0.998       6.290e-03          0.0613
 105       2.958e+00      -4.193e+00       2.388e-03           0.063           0.023           0.998       1.850e-02          0.1023
 106       2.886e+00      -4.193e+00       6.763e-03           0.056           0.021           0.998       2.962e-02          0.1421
 107       2.777e+00      -4.193e+00       1.261e-02           0.048           0.017           0.999       3.901e-02          0.1747
 108       2.638e+00      -4.193e+00       1.878e-02           0.037           0.013           0.999       4.613e-02          0.2000
 109       2.477e+00      -4.193e+00       2.415e-02           0.024           0.009           1.000       5.056e-02          0.2176
 110       2.304e+00      -4.193e+00       2.778e-02           0.011           0.004           1.000       5.206e-02          0.2342
 111       2.128e+00      -4.193e+00       2.901e-02          -0.006          -0.002           1.000       5.054e-02          0.2474
 112       1.960e+00      -4.193e+00       2.700e-02          -0.033          -0.012           0.999       4.612e-02          0.2069
 113       1.809e+00      -4.193e+00       2.127e-02          -0.057          -0.021           0.998       3.904e-02          0.1257
 114       1.685e+00      -4.193e+00       1.363e-02          -0.077          -0.028           0.997       2.967e-02          0.0047
 115       1.593e+00      -4.193e+00       6.383e-03          -0.091          -0.033           0.995       1.855e-02         -0.1891
 116       1.541e+00      -4.193e+00       1.571e-03          -0.098          -0.035           0.995       6.309e-03         -0.6603
Strip 10
 117       2.878e+00      -3.886e+00       3.508e-04           0.066           0.024           0.998       6.882e-03          0.0626
 118       2.846e+00      -3.886e+00       2.388e-03           0.063           0.023           0.998       2.024e-02          0.1045
 119       2.774e+00      -3.886e+00       6.763e-03           0.056           0.021           0.998       3.241e-02          0.1451
 120       2.665e+00      -3.886e+00       1.261e-02           0.048           0.017           0.999       4.269e-02          0.1784
 121       2.526e+00      -3.886e+00       1.878e-02           0.037           0.013           0.999       5.047e-02          0.2042
 122       2.366e+00      -3.886e+00       2.415e-02           0.024           0.009           1.000       5.532e-02          0.2220
 123       2.192e+00      -3.886e+00       2.778e-02           0.011           0.004           1.000       5.696e-02          0.2386
 124       2.016e+00      -3.886e+00       2.901e-02          -0.006          -0.002           1.000       5.530e-02          0.2518
 125       1.848e+00      -3.886e+00       2.700e-02          -0.033          -0.012           0.999       5.046e-02          0.2113
 126       1.697e+00      -3.886e+00       2.127e-02          -0.057          -0.021           0.998       4.271e-02          0.1304
 127       1.573e+00      -3.886e+00       1.363e-02          -0.077          -0.028           0.997       3.246e-02          0.0103
 128       1.481e+00      -3.886e+00       6.383e-03          -0.091          -0.033           0.995       2.029e-02         -0.1808
 129       1.429e+00      -3.886e+00       1.571e-03          -0.098          -0.035           0.995       6.902e-03         -0.6410
Strip 11
 130       2.756e+00      -3.552e+00       3.508e-04           0.066           0.024           0.998       7.427e-03          0.0634
 131       2.724e+00      -3.552e+00       2.388e-03           0.063           0.023           0.998       2.184e-02          0.1059
 132       2.652e+00      -3.552e+00       6.763e-03           0.056           0.021           0.998       3.498e-02          0.1471
 133       2.543e+00      -3.552e+00       1.261e-02           0.048           0.017           0.999       4.606e-02          0.1809
 134       2.405e+00      -3.552e+00       1.878e-02           0.037           0.013           0.999       5.446e-02          0.2071
 135       2.244e+00      -3.552e+00       2.415e-02           0.024           0.009           1.000       5.970e-02          0.2251
 136       2.071e+00      -3.552e+00       2.778e-02           0.011           0.004           1.000       6.147e-02          0.2419
 137       1.895e+00      -3.552e+00       2.901e-02          -0.006          -0.002           1.000       5.968e-02          0.2550
 138       1.727e+00      -3.552e+00       2.700e-02          -0.033          -0.012           0.999       5.446e-02          0.2147
 139       1.576e+00      -3.552e+00       2.127e-02          -0.057          -0.021           0.998       4.609e-02          0.1341
 140       1.451e+00      -3.552e+00       1.363e-02          -0.077          -0.028           0.997       3.503e-02          0.0146
 141       1.360e+00      -3.552e+00       6.383e-03          -0.091          -0.033           0.995       2.190e-02         -0.1743
 142       1.308e+00      -3.552e+00       1.571e-03          -0.098          -0.035           0.995       7.449e-03         -0.6261
Strip 12
 143       2.626e+00      -3.193e+00       3.508e-04           0.066           0.024           0.998       7.921e-03          0.0640
 144       2.594e+00      -3.193e+00       2.388e-03           0.063           0.023           0.998       2.330e-02          0.1069
 145       2.522e+00      -3.193e+00       6.763e-03           0.056           0.021           0.998       3.730e-02          0.1485
 146       2.413e+00      -3.193e+00       1.261e-02           0.048           0.017           0.999       4.913e-02          0.1827
 147       2.274e+00      -3.193e+00       1.878e-02           0.037           0.013           0.999       5.809e-02          0.2091
 148       2.114e+00      -3.193e+00       2.415e-02           0.024           0.009           1.000       6.367e-02          0.2273
 149       1.940e+00      -3.193e+00       2.778e-02           0.011           0.004           1.000       6.556e-02          0.2441
 150       1.765e+00      -3.193e+00       2.901e-02          -0.006          -0.002           1.000       6.365e-02          0.2573
 151       1.596e+00      -3.193e+00       2.700e-02          -0.033          -0.012           0.999       5.808e-02          0.2170
 152       1.445e+00      -3.193e+00       2.127e-02          -0.057          -0.021           0.998       4.916e-02          0.1366
 153       1.321e+00      -3.193e+00       1.363e-02          -0.077          -0.028           0.997       3.736e-02          0.0177
 154       1.230e+00      -3.193e+00       6.383e-03          -0.091          -0.033           0.995       2.335e-02         -0.1698
 155       1.177e+00      -3.193e+00       1.571e-03          -0.098          -0.035           0.995       7.944e-03         -0.6157
Strip 13
 156       2.488e+00      -2.813e+00       3.508e-04           0.066           0.024           0.998       8.361e-03          0.0644
 157       2.456e+00      -2.813e+00       2.388e-03           0.063           0.023           0.998       2.459e-02          0.1076
 158       2.384e+00      -2.813e+00       6.763e-03           0.056           0.021           0.998       3.938e-02          0.1495
 159       2.275e+00      -2.813e+00       1.261e-02           0.048           0.017           0.999       5.186e-02          0.1839
 160       2.136e+00      -2.813e+00       1.878e-02           0.037           0.013           0.999       6.131e-02          0.2105
 161       1.976e+00      -2.813e+00       2.415e-02           0.024           0.009           1.000       6.720e-02          0.2287
 162       1.802e+00      -2.813e+00       2.778e-02           0.011           0.004           1.000       6.920e-02          0.2456
 163       1.626e+00      -2.813e+00       2.901e-02          -0.006          -0.002           1.000       6.718e-02          0.2588
 164       1.458e+00      -2.813e+00       2.700e-02          -0.033          -0.012           0.999       6.130e-02          0.2185
 165       1.307e+00      -2.813e+00       2.127e-02          -0.057          -0.021           0.998       5.189e-02          0.1381
 166       1.183e+00      -2.813e+00       1.363e-02          -0.077          -0.028           0.997       3.944e-02          0.0194
 167       1.091e+00      -2.813e+00       6.383e-03          -0.091          -0.033           0.995       2.465e-02         -0.1673
 168       1.039e+00      -2.813e+00       1.571e-03          -0.098          -0.035           0.995       8.386e-03         -0.6101
Strip 14
 169       2.342e+00      -2.414e+00       3.508e-04           0.066           0.024           0.998       8.743e-03          0.0647
 170       2.311e+00      -2.414e+00       2.388e-03           0.063           0.023           0.998       2.572e-02          0.1080
 171       2.238e+00      -2.414e+00       6.763e-03           0.056           0.021           0.998       4.118e-02          0.1501
 172       2.130e+00      -2.414e+00       1.261e-02           0.048           0.017           0.999       5.423e-02          0.1846
 173       1.991e+00      -2.414e+00       1.878e-02           0.037           0.013           0.999       6.412e-02          0.2113
 174       1.830e+00      -2.414e+00       2.415e-02           0.024           0.009           1.000       7.028e-02          0.2296
 175       1.657e+00      -2.414e+00       2.778e-02           0.011           0.004           1.000       7.237e-02          0.2464
 176       1.481e+00      -2.414e+00       2.901e-02          -0.006          -0.002           1.000       7.026e-02          0.2596
 177       1.313e+00      -2.414e+00       2.700e-02          -0.033          -0.012           0.999       6.411e-02          0.2191
 178       1.162e+00      -2.414e+00       2.127e-02          -0.057          -0.021           0.998       5.426e-02          0.1386
 179       1.037e+00      -2.414e+00       1.363e-02          -0.077          -0.028           0.997       4.124e-02          0.0198
 180       9.461e-01      -2.414e+00       6.383e-03          -0.091          -0.033           0.995       2.578e-02         -0.1670
 181       8.937e-01      -2.414e+00       1.571e-03          -0.098          -0.035           0.995       8.770e-03         -0.6096
Strip 15
 182       2.191e+00      -1.998e+00       3.508e-04           0.066           0.024           0.998       9.067e-03          0.0648
 183       2.159e+00      -1.998e+00       2.388e-03           0.063           0.023           0.998       2.667e-02          0.1083
 184       2.087e+00      -1.998e+00       6.763e-03           0.056           0.021           0.998       4.270e-02          0.1505
 185       1.978e+00      -1.998e+00       1.261e-02           0.048           0.017           0.999       5.624e-02          0.1851
 186       1.840e+00      -1.998e+00       1.878e-02           0.037           0.013           0.999       6.649e-02          0.2118
 187       1.679e+00      -1.998e+00       2.415e-02           0.024           0.009           1.000       7.288e-02          0.2299
 188       1.506e+00      -1.998e+00       2.778e-02           0.011           0.004           1.000       7.504e-02          0.2467
 189       1.330e+00      -1.998e+00       2.901e-02          -0.006          -0.002           1.000       7.286e-02          0.2596
 190       1.162e+00      -1.998e+00       2.700e-02          -0.033          -0.012           0.999       6.648e-02          0.2189
 191       1.011e+00      -1.998e+00       2.127e-02          -0.057          -0.021           0.998       5.627e-02          0.1380
 192       8.861e-01      -1.998e+00       1.363e-02          -0.077          -0.028           0.997       4.277e-02          0.0186
 193       7.949e-01      -1.998e+00       6.383e-03          -0.091          -0.033           0.995       2.673e-02         -0.1692
 194       7.424e-01      -1.998e+00       1.571e-03          -0.098          -0.035           0.995       9.094e-03         -0.6150
Strip 16
 195       2.035e+00      -1.568e+00       3.508e-04           0.066           0.024           0.998       9.328e-03          0.0649
 196       2.003e+00      -1.568e+00       2.388e-03           0.063           0.023           0.998       2.744e-02          0.1085
 197       1.931e+00      -1.568e+00       6.763e-03           0.056           0.021           0.998       4.393e-02          0.1507
 198       1.822e+00      -1.568e+00       1.261e-02           0.048           0.017           0.999       5.786e-02          0.1853
 199       1.683e+00      -1.568e+00       1.878e-02           0.037           0.013           0.999       6.841e-02          0.2119
 200       1.523e+00      -1.568e+00       2.415e-02           0.024           0.009           1.000       7.498e-02          0.2299
 201       1.349e+00      -1.568e+00       2.778e-02           0.011           0.004           1.000       7.720e-02          0.2463
 202       1.174e+00      -1.568e+00       2.901e-02          -0.006          -0.002           1.000       7.496e-02          0.2588
 203       1.005e+00      -1.568e+00       2.700e-02          -0.033          -0.012           0.999       6.840e-02          0.2176
 204       8.545e-01      -1.568e+00       2.127e-02          -0.057          -0.021           0.998       5.789e-02          0.1360
 205       7.299e-01      -1.568e+00       1.363e-02          -0.077          -0.028           0.997       4.400e-02          0.0155
 206       6.387e-01      -1.568e+00       6.383e-03          -0.091          -0.033           0.995       2.750e-02         -0.1744
 207       5.862e-01      -1.568e+00       1.571e-03          -0.098          -0.035           0.995       9.356e-03         -0.6278
Strip 17
 208       1.875e+00      -1.128e+00       3.508e-04           0.066           0.024           0.998       9.525e-03          0.0650
 209       1.843e+00      -1.128e+00       2.388e-03           0.063           0.023           0.998       2.802e-02          0.1087
 210       1.771e+00      -1.128e+00       6.763e-03           0.056           0.021           0.998       4.486e-02          0.1509
 211       1.662e+00      -1.128e+00       1.261e-02           0.048           0.017           0.999       5.908e-02          0.1854
 212       1.523e+00      -1.128e+00       1.878e-02           0.037           0.013           0.999       6.986e-02          0.2119
 213       1.363e+00      -1.128e+00       2.415e-02           0.024           0.009           1.000       7.657e-02          0.2295
 214       1.189e+00      -1.128e+00       2.778e-02           0.011           0.004           1.000       7.884e-02          0.2454
 215       1.013e+00      -1.128e+00       2.901e-02          -0.006          -0.002           1.000       7.654e-02          0.2572
 216       8.452e-01      -1.128e+00       2.700e-02          -0.033          -0.012           0.999       6.984e-02          0.2150
 217       6.944e-01      -1.128e+00       2.127e-02          -0.057          -0.021           0.998       5.912e-02          0.1322
 218       5.698e-01      -1.128e+00       1.363e-02          -0.077          -0.028           0.997       4.493e-02          0.0098
 219       4.786e-01      -1.128e+00       6.383e-03          -0.091          -0.033           0.995       2.808e-02         -0.1840
 220       4.261e-01      -1.128e+00       1.571e-03          -0.098          -0.035           0.995       9.554e-03         -0.6509
Strip 18
 221       1.712e+00      -6.797e-01       3.508e-04           0.066           0.024           0.998       9.658e-03          0.0655
 222       1.680e+00      -6.797e-01       2.388e-03           0.063           0.023           0.998       2.841e-02          0.1093
 223       1.608e+00      -6.797e-01       6.763e-03           0.056           0.021           0.998       4.549e-02          0.1518
 224       1.499e+00      -6.797e-01       1.261e-02           0.048           0.017           0.999       5.990e-02          0.1863
 225       1.360e+00      -6.797e-01       1.878e-02           0.037           0.013           0.999       7.083e-02          0.2124
 226       1.200e+00      -6.797e-01       2.415e-02           0.024           0.009           1.000       7.763e-02          0.2293
 227       1.026e+00      -6.797e-01       2.778e-02           0.011           0.004           1.000       7.993e-02          0.2439
 228       8.506e-01      -6.797e-01       2.901e-02          -0.006          -0.002           1.000       7.761e-02          0.2542
 229       6.823e-01      -6.797e-01       2.700e-02          -0.033          -0.012           0.999       7.081e-02          0.2102
 230       5.315e-01      -6.797e-01       2.127e-02          -0.057          -0.021           0.998       5.994e-02          0.1252
 231       4.069e-01      -6.797e-01       1.363e-02          -0.077          -0.028           0.997       4.556e-02         -0.0001
 232       3.157e-01      -6.797e-01       6.383e-03          -0.091          -0.033           0.995       2.848e-02         -0.2003
 233       2.632e-01      -6.797e-01       1.571e-03          -0.098          -0.035           0.995       9.686e-03         -0.6898
Strip 19
 234       1.547e+00      -2.271e-01       3.508e-04           0.066           0.024           0.998       9.724e-03          0.0678
 235       1.516e+00      -2.271e-01       2.388e-03           0.063           0.023           0.998       2.860e-02          0.1133
 236       1.443e+00      -2.271e-01       6.763e-03           0.056           0.021           0.998       4.580e-02          0.1569
 237       1.335e+00      -2.271e-01       1.261e-02           0.048           0.017           0.999       6.031e-02          0.1914
 238       1.196e+00      -2.271e-01       1.878e-02           0.037           0.013           0.999       7.131e-02          0.2161
 239       1.035e+00      -2.271e-01       2.415e-02           0.024           0.009           1.000       7.816e-02          0.2302
 240       8.619e-01      -2.271e-01       2.778e-02           0.011           0.004           1.000       8.048e-02          0.2413
 241       6.860e-01      -2.271e-01       2.901e-02          -0.006          -0.002           1.000       7.814e-02          0.2475
 242       5.177e-01      -2.271e-01       2.700e-02          -0.033          -0.012           0.999       7.130e-02          0.1996
 243       3.669e-01      -2.271e-01       2.127e-02          -0.057          -0.021           0.998       6.035e-02          0.1114
 244       2.423e-01      -2.271e-01       1.363e-02          -0.077          -0.028           0.997       4.587e-02         -0.0176
 245       1.511e-01      -2.271e-01       6.383e-03          -0.091          -0.033           0.995       2.867e-02         -0.2256
 246       9.860e-02      -2.271e-01       1.571e-03          -0.098          -0.035           0.995       9.753e-03         -0.7467
Strip 20
 247       1.547e+00       2.271e-01       3.508e-04           0.066          -0.024           0.998       9.724e-03          0.0678
 248       1.516e+00       2.271e-01       2.388e-03           0.063          -0.023           0.998       2.860e-02          0.1133
 249       1.443e+00       2.271e-01       6.763e-03           0.056          -0.021           0.998       4.580e-02          0.1569
 250       1.335e+00       2.271e-01       1.261e-02           0.048          -0.017           0.999       6.031e-02          0.1914
 251       1.196e+00       2.271e-01       1.878e-02           0.037          -0.013           0.999       7.131e-02          0.2161
 252       1.035e+00       2.271e-01       2.415e-02           0.024          -0.009           1.000       7.816e-02          0.2302
 253       8.619e-01       2.271e-01       2.778e-02           0.011          -0.004           1.000       8.048e-02          0.2413
 254       6.860e-01       2.271e-01       2.901e-02          -0.006           0.002           1.000       7.814e-02          0.2475
 255       5.177e-01       2.271e-01       2.700e-02          -0.033           0.012           0.999       7.130e-02          0.1996
 256       3.669e-01       2.271e-01       2.127e-02          -0.057           0.021           0.998       6.035e-02          0.1114
 257       2.423e-01       2.271e-01       1.363e-02          -0.077           0.028           0.997       4.587e-02         -0.0176
 258       1.511e-01       2.271e-01       6.383e-03          -0.091           0.033           0.995       2.867e-02         -0.2256
 259       9.860e-02       2.271e-01       1.571e-03          -0.098           0.035           0.995       9.753e-03         -0.7467
Strip 21
 260       1.712e+00       6.797e-01       3.508e-04           0.066          -0.024           0.998       9.658e-03          0.0655
 261       1.680e+00       6.797e-01       2.388e-03           0.063          -0.023           0.998       2.841e-02          0.1093
 262       1.608e+00       6.797e-01       6.763e-03           0.056          -0.021           0.998       4.549e-02          0.1518
 263       1.499e+00       6.797e-01       1.261e-02           0.048          -0.017           0.999       5.990e-02          0.1863
 264       1.360e+00       6.797e-01       1.878e-02           0.037          -0.013           0.999       7.083e-02          0.2124
 265       1.200e+00       6.797e-01       2.415e-02           0.024          -0.009           1.000       7.763e-02          0.2293
 266       1.026e+00       6.797e-01       2.778e-02           0.011          -0.004           1.000       7.993e-02          0.2439
 267       8.506e-01       6.797e-01       2.901e-02          -0.006           0.002           1.000       7.761e-02          0.2542
 268       6.823e-01       6.797e-01       2.700e-02          -0.033           0.012           0.999       7.081e-02          0.2102
 269       5.315e-01       6.797e-01       2.127e-02          -0.057           0.021           0.998       5.994e-02          0.1252
 270       4.069e-01       6.797e-01       1.363e-02          -0.077           0.028           0.997       4.556e-02         -0.0001
 271       3.157e-01       6.797e-01       6.383e-03          -0.091           0.033           0.995       2.848e-02         -0.2003
 272       2.632e-01       6.797e-01       1.571e-03          -0.098           0.035           0.995       9.686e-03         -0.6898
Strip 22
 273       1.875e+00       1.128e+00       3.508e-04           0.066          -0.024           0.998       9.525e-03          0.0650
 274       1.843e+00       1.128e+00       2.388e-03           0.063          -0.023           0.998       2.802e-02          0.1087
 275       1.771e+00       1.128e+00       6.763e-03           0.056          -0.021           0.998       4.486e-02          0.1509
 276       1.662e+00       1.128e+00       1.261e-02           0.048          -0.017           0.999       5.908e-02          0.1854
 277       1.523e+00       1.128e+00       1.878e-02           0.037          -0.013           0.999       6.986e-02          0.2119
 278       1.363e+00       1.128e+00       2.415e-02           0.024          -0.009           1.000       7.657e-02          0.2295
 279       1.189e+00       1.128e+00       2.778e-02           0.011          -0.004           1.000       7.884e-02          0.2454
 280       1.013e+00       1.128e+00       2.901e-02          -0.006           0.002           1.000       7.654e-02          0.2572
 281       8.452e-01       1.128e+00       2.700e-02          -0.033           0.012           0.999       6.984e-02          0.2150
 282       6.944e-01       1.128e+00       2.127e-02          -0.057           0.021           0.998       5.912e-02          0.1322
 283       5.698e-01       1.128e+00       1.363e-02          -0.077           0.028           0.997       4.493e-02          0.0098
 284       4.786e-01       1.128e+00       6.383e-03          -0.091           0.033           0.995       2.808e-02         -0.1840
 285       4.261e-01       1.128e+00       1.571e-03          -0.098           0.035           0.995       9.554e-03         -0.6509
Strip 23
 286       2.035e+00       1.568e+00       3.508e-04           0.066          -0.024           0.998       9.328e-03          0.0649
 287       2.003e+00       1.568e+00       2.388e-03           0.063          -0.023           0.998       2.744e-02          0.1085
 288       1.931e+00       1.568e+00       6.763e-03           0.056          -0.021           0.998       4.393e-02          0.1507
 289       1.822e+00       1.568e+00       1.261e-02           0.048          -0.017           0.999       5.786e-02          0.1853
 290       1.683e+00       1.568e+00       1.878e-02           0.037          -0.013           0.999       6.841e-02          0.2119
 291       1.523e+00       1.568e+00       2.415e-02           0.024          -0.009           1.000       7.498e-02          0.2299
 292       1.349e+00       1.568e+00       2.778e-02           0.011          -0.004           1.000       7.720e-02          0.2463
 293       1.174e+00       1.568e+00       2.901e-02          -0.006           0.002           1.000       7.496e-02          0.2588
 294       1.005e+00       1.568e+00       2.700e-02          -0.033           0.012           0.999       6.840e-02          0.2176
 295       8.545e-01       1.568e+00       2.127e-02          -0.057           0.021           0.998       5.789e-02          0.1360
 296       7.299e-01       1.568e+00       1.363e-02          -0.077           0.028           0.997       4.400e-02          0.0155
 297       6.387e-01       1.568e+00       6.383e-03          -0.091           0.033           0.995       2.750e-02         -0.1744
 298       5.862e-01       1.568e+00       1.571e-03          -0.098           0.035           0.995       9.356e-03         -0.6278
Strip 24
 299       2.191e+00       1.998e+00       3.508e-04           0.066          -0.024           0.998       9.067e-03          0.0648
 300       2.159e+00       1.998e+00       2.388e-03           0.063          -0.023           0.998       2.667e-02          0.1083
 301       2.087e+00       1.998e+00       6.763e-03           0.056          -0.021           0.998       4.270e-02          0.1505
 302       1.978e+00       1.998e+00       1.261e-02           0.048          -0.017           0.999       5.624e-02          0.1851
 303       1.840e+00       1.998e+00       1.878e-02           0.037          -0.013           0.999       6.649e-02          0.2118
 304       1.679e+00       1.998e+00       2.415e-02           0.024          -0.009           1.000       7.288e-02          0.2299
 305       1.506e+00       1.998e+00       2.778e-02           0.011          -0.004           1.000       7.504e-02          0.2467
 306       1.330e+00       1.998e+00       2.901e-02          -0.006           0.002           1.000       7.286e-02          0.2596
 307       1.162e+00       1.998e+00       2.700e-02          -0.033           0.012           0.999       6.648e-02          0.2189
 308       1.011e+00       1.998e+00       2.127e-02          -0.057           0.021           0.998       5.627e-02          0.1380
 309       8.861e-01       1.998e+00       1.363e-02          -0.077           0.028           0.997       4.277e-02          0.0186
 310       7.949e-01       1.998e+00       6.383e-03          -0.091           0.033           0.995       2.673e-02         -0.1692
 311       7.424e-01       1.998e+00       1.571e-03          -0.098           0.035           0.995       9.094e-03         -0.6150
Strip 25
 312       2.342e+00       2.414e+00       3.508e-04           0.066          -0.024           0.998       8.743e-03          0.0647
 313       2.311e+00       2.414e+00       2.388e-03           0.063          -0.023           0.998       2.572e-02          0.1080
 314       2.238e+00       2.414e+00       6.763e-03           0.056          -0.021           0.998       4.118e-02          0.1501
 315       2.130e+00       2.414e+00       1.261e-02           0.048          -0.017           0.999       5.423e-02          0.1846
 316       1.991e+00       2.414e+00       1.878e-02           0.037          -0.013           0.999       6.412e-02          0.2113
 317       1.830e+00       2.414e+00       2.415e-02           0.024          -0.009           1.000       7.028e-02          0.2296
 318       1.657e+00       2.414e+00       2.778e-02           0.011          -0.004           1.000       7.237e-02          0.2464
 319       1.481e+00       2.414e+00       2.901e-02          -0.006           0.002           1.000       7.026e-02          0.2596
 320       1.313e+00       2.414e+00       2.700e-02          -0.033           0.012           0.999       6.411e-02          0.2191
 321       1.162e+00       2.414e+00       2.127e-02          -0.057           0.021           0.998       5.426e-02          0.1386
 322       1.037e+00       2.414e+00       1.363e-02          -0.077           0.028           0.997       4.124e-02          0.0198
 323       9.461e-01       2.414e+00       6.383e-03          -0.091           0.033           0.995       2.578e-02         -0.1670
 324       8.937e-01       2.414e+00       1.571e-03          -0.098           0.035           0.995       8.770e-03         -0.6096
Strip 26
 325       2.488e+00       2.813e+00       3.508e-04           0.066          -0.024           0.998       8.361e-03          0.0644
 326       2.456e+00       2.813e+00       2.388e-03           0.063          -0.023           0.998       2.459e-02          0.1076
 327       2.384e+00       2.813e+00       6.763e-03           0.056          -0.021           0.998       3.938e-02          0.1495
 328       2.275e+00       2.813e+00       1.261e-02           0.048          -0.017           0.999       5.186e-02          0.1839
 329       2.136e+00       2.813e+00       1.878e-02           0.037          -0.013           0.999       6.131e-02          0.2105
 330       1.976e+00       2.813e+00       2.415e-02           0.024          -0.009           1.000       6.720e-02          0.2287
 331       1.802e+00       2.813e+00       2.778e-02           0.011          -0.004           1.000       6.920e-02          0.2456
 332       1.626e+00       2.813e+00       2.901e-02          -0.006           0.002           1.000       6.718e-02          0.2588
 333       1.458e+00       2.813e+00       2.700e-02          -0.033           0.012           0.999       6.130e-02          0.2185
 334       1.307e+00       2.813e+00       2.127e-02          -0.057           0.021           0.998       5.189e-02          0.1381
 335       1.183e+00       2.813e+00       1.363e-02          -0.077           0.028           0.997       3.944e-02          0.0194
 336       1.091e+00       2.813e+00       6.383e-03          -0.091           0.033           0.995       2.465e-02         -0.1673
 337       1.039e+00       2.813e+00       1.571e-03          -0.098           0.035           0.995       8.386e-03         -0.6101
Strip 27
 338       2.626e+00       3.193e+00       3.508e-04           0.066          -0.024           0.998       7.921e-03          0.0640
 339       2.594e+00       3.193e+00       2.388e-03           0.063          -0.023           0.998       2.330e-02          0.1069
 340       2.522e+00       3.193e+00       6.763e-03           0.056          -0.021           0.998       3.730e-02          0.1485
 341       2.413e+00       3.193e+00       1.261e-02           0.048          -0.017           0.999       4.913e-02          0.1827
 342       2.274e+00       3.193e+00       1.878e-02           0.037          -0.013           0.999       5.809e-02          0.2091
 343       2.114e+00       3.193e+00       2.415e-02           0.024          -0.009           1.000       6.367e-02          0.2273
 344       1.940e+00       3.193e+00       2.778e-02           0.011          -0.004           1.000       6.556e-02          0.2441
 345       1.765e+00       3.193e+00       2.901e-02          -0.006           0.002           1.000       6.365e-02          0.2573
 346       1.596e+00       3.193e+00       2.700e-02          -0.033           0.012           0.999       5.808e-02          0.2170
 347       1.445e+00       3.193e+00       2.127e-02          -0.057           0.021           0.998       4.916e-02          0.1366
 348       1.321e+00       3.193e+00       1.363e-02          -0.077           0.028           0.997       3.736e-02          0.0177
 349       1.230e+00       3.193e+00       6.383e-03          -0.091           0.033           0.995       2.335e-02         -0.1698
 350       1.177e+00       3.193e+00       1.571e-03          -0.098           0.035           0.995       7.944e-03         -0.6157
Strip 28
 351       2.756e+00       3.552e+00       3.508e-04           0.066          -0.024           0.998       7.427e-03          0.0634
 352       2.724e+00       3.552e+00       2.388e-03           0.063          -0.023           0.998       2.184e-02          0.1059
 353       2.652e+00       3.552e+00       6.763e-03           0.056          -0.021           0.998       3.498e-02          0.1471
 354       2.543e+00       3.552e+00       1.261e-02           0.048          -0.017           0.999       4.606e-02          0.1809
 355       2.405e+00       3.552e+00       1.878e-02           0.037          -0.013           0.999       5.446e-02          0.2071
 356       2.244e+00       3.552e+00       2.415e-02           0.024          -0.009           1.000       5.970e-02          0.2251
 357       2.071e+00       3.552e+00       2.778e-02           0.011          -0.004           1.000       6.147e-02          0.2419
 358       1.895e+00       3.552e+00       2.901e-02          -0.006           0.002           1.000       5.968e-02          0.2550
 359       1.727e+00       3.552e+00       2.700e-02          -0.033           0.012           0.999       5.446e-02          0.2147
 360       1.576e+00       3.552e+00       2.127e-02          -0.057           0.021           0.998       4.609e-02          0.1341
 361       1.451e+00       3.552e+00       1.363e-02          -0.077           0.028           0.997       3.503e-02          0.0146
 362       1.360e+00       3.552e+00       6.383e-03          -0.091           0.033           0.995       2.190e-02         -0.1743
 363       1.308e+00       3.552e+00       1.571e-03          -0.098           0.035           0.995       7.449e-03         -0.6261
Strip 29
 364       2.878e+00       3.886e+00       3.508e-04           0.066          -0.024           0.998       6.882e-03          0.0626
 365       2.846e+00       3.886e+00       2.388e-03           0.063          -0.023           0.998       2.024e-02          0.1045
 366       2.774e+00       3.886e+00       6.763e-03           0.056          -0.021           0.998       3.241e-02          0.1451
 367       2.665e+00       3.886e+00       1.261e-02           0.048          -0.017           0.999       4.269e-02          0.1784
 368       2.526e+00       3.886e+00       1.878e-02           0.037          -0.013           0.999       5.047e-02          0.2042
 369       2.366e+00       3.886e+00       2.415e-02           0.024          -0.009           1.000       5.532e-02          0.2220
 370       2.192e+00       3.886e+00       2.778e-02           0.011          -0.004           1.000       5.696e-02          0.2386
 371       2.016e+00       3.886e+00       2.901e-02          -0.006           0.002           1.000       5.530e-02          0.2518
 372       1.848e+00       3.886e+00       2.700e-02          -0.033           0.012           0.999       5.046e-02          0.2113
 373       1.697e+00       3.886e+00       2.127e-02          -0.057           0.021           0.998       4.271e-02          0.1304
 374       1.573e+00       3.886e+00       1.363e-02          -0.077           0.028           0.997       3.246e-02          0.0103
 375       1.481e+00       3.886e+00       6.383e-03          -0.091           0.033           0.995       2.029e-02         -0.1808
 376       1.429e+00       3.886e+00       1.571e-03          -0.098           0.035           0.995       6.902e-03         -0.6410
Strip 30
 377       2.990e+00       4.193e+00       3.508e-04           0.066          -0.024           0.998       6.290e-03          0.0613
 378       2.958e+00       4.193e+00       2.388e-03           0.063          -0.023           0.998       1.850e-02          0.1023
 379       2.886e+00       4.193e+00       6.763e-03           0.056          -0.021           0.998       2.962e-02          0.1421
 380       2.777e+00       4.193e+00       1.261e-02           0.048          -0.017           0.999       3.901e-02          0.1747
 381       2.638e+00       4.193e+00       1.878e-02           0.037          -0.013           0.999       4.613e-02          0.2000
 382       2.477e+00       4.193e+00       2.415e-02           0.024          -0.009           1.000       5.056e-02          0.2176
 383       2.304e+00       4.193e+00       2.778e-02           0.011          -0.004           1.000       5.206e-02          0.2342
 384       2.128e+00       4.193e+00       2.901e-02          -0.006           0.002           1.000       5.054e-02          0.2474
 385       1.960e+00       4.193e+00       2.700e-02          -0.033           0.012           0.999       4.612e-02          0.2069
 386       1.809e+00       4.193e+00       2.127e-02          -0.057           0.021           0.998       3.904e-02          0.1257
 387       1.685e+00       4.193e+00       1.363e-02          -0.077           0.028           0.997       2.967e-02          0.0047
 388       1.593e+00       4.193e+00       6.383e-03          -0.091           0.033           0.995       1.855e-02         -0.1891
 389       1.541e+00       4.193e+00       1.571e-03          -0.098           0.035           0.995       6.309e-03         -0.6603
Strip 31
 390       3.091e+00       4.472e+00       3.508e-04           0.066          -0.024           0.998       5.655e-03          0.0595
 391       3.059e+00       4.472e+00       2.388e-03           0.063          -0.023           0.998       1.663e-02          0.0992
 392       2.987e+00       4.472e+00       6.763e-03           0.056          -0.021           0.998       2.664e-02          0.1376
 393       2.878e+00       4.472e+00       1.261e-02           0.048          -0.017           0.999       3.508e-02          0.1692
 394       2.740e+00       4.472e+00       1.878e-02           0.037          -0.013           0.999       4.147e-02          0.1939
 395       2.579e+00       4.472e+00       2.415e-02           0.024          -0.009           1.000       4.546e-02          0.2113
 396       2.406e+00       4.472e+00       2.778e-02           0.011          -0.004           1.000       4.681e-02          0.2281
 397       2.230e+00       4.472e+00       2.901e-02          -0.006           0.002           1.000       4.544e-02          0.2416
 398       2.061e+00       4.472e+00       2.700e-02          -0.033           0.012           0.999       4.147e-02          0.2013
 399       1.911e+00       4.472e+00       2.127e-02          -0.057           0.021           0.998       3.510e-02          0.1200
 400       1.786e+00       4.472e+00       1.363e-02          -0.077           0.028           0.997       2.668e-02         -0.0021
 401       1.695e+00       4.472e+00       6.383e-03          -0.091           0.033           0.995       1.667e-02         -0.1990
 402       1.642e+00       4.472e+00       1.571e-03          -0.098           0.035           0.995       5.672e-03         -0.6830
Strip 32
 403       3.181e+00       4.721e+00       3.508e-04           0.066          -0.024           0.998       4.982e-03          0.0569
 404       3.150e+00       4.721e+00       2.388e-03           0.063          -0.023           0.998       1.465e-02          0.0947
 405       3.077e+00       4.721e+00       6.763e-03           0.056          -0.021           0.998       2.346e-02          0.1312
 406       2.969e+00       4.721e+00       1.261e-02           0.048          -0.017           0.999       3.090e-02          0.1612
 407       2.830e+00       4.721e+00       1.878e-02           0.037          -0.013           0.999       3.654e-02          0.1850
 408       2.669e+00       4.721e+00       2.415e-02           0.024          -0.009           1.000       4.005e-02          0.2021
 409       2.496e+00       4.721e+00       2.778e-02           0.011          -0.004           1.000       4.123e-02          0.2195
 410       2.320e+00       4.721e+00       2.901e-02          -0.006           0.002           1.000       4.003e-02          0.2340
 411       2.152e+00       4.721e+00       2.700e-02          -0.033           0.012           0.999       3.653e-02          0.1945
 412       2.001e+00       4.721e+00       2.127e-02          -0.057           0.021           0.998       3.092e-02          0.1134
 413       1.876e+00       4.721e+00       1.363e-02          -0.077           0.028           0.997       2.350e-02         -0.0096
 414       1.785e+00       4.721e+00       6.383e-03          -0.091           0.033           0.995       1.469e-02         -0.2098
 415       1.733e+00       4.721e+00       1.571e-03          -0.098           0.035           0.995       4.997e-03         -0.7076
Strip 33
 416       3.260e+00       4.937e+00       3.508e-04           0.066          -0.024           0.998       4.274e-03          0.0533
 417       3.228e+00       4.937e+00       2.388e-03           0.063          -0.023           0.998       1.257e-02          0.0884
 418       3.156e+00       4.937e+00       6.763e-03           0.056          -0.021           0.998       2.013e-02          0.1222
 419       3.047e+00       4.937e+00       1.261e-02           0.048          -0.017           0.999       2.651e-02          0.1499
 420       2.909e+00       4.937e+00       1.878e-02           0.037          -0.013           0.999       3.135e-02          0.1721
 421       2.748e+00       4.937e+00       2.415e-02           0.024          -0.009           1.000       3.436e-02          0.1889
 422       2.575e+00       4.937e+00       2.778e-02           0.011          -0.004           1.000       3.538e-02          0.2072
 423       2.399e+00       4.937e+00       2.901e-02          -0.006           0.002           1.000       3.435e-02          0.2237
 424       2.230e+00       4.937e+00       2.700e-02          -0.033           0.012           0.999       3.134e-02          0.1864
 425       2.080e+00       4.937e+00       2.127e-02          -0.057           0.021           0.998       2.653e-02          0.1064
 426       1.955e+00       4.937e+00       1.363e-02          -0.077           0.028           0.997       2.016e-02         -0.0169
 427       1.864e+00       4.937e+00       6.383e-03          -0.091           0.033           0.995       1.260e-02         -0.2202
 428       1.811e+00       4.937e+00       1.571e-03          -0.098           0.035           0.995       4.287e-03         -0.7313
Strip 34
 429       3.326e+00       5.119e+00       3.508e-04           0.066          -0.024           0.998       3.538e-03          0.0486
 430       3.295e+00       5.119e+00       2.388e-03           0.063          -0.023           0.998       1.041e-02          0.0802
 431       3.222e+00       5.119e+00       6.763e-03           0.056          -0.021           0.998       1.666e-02          0.1102
 432       3.114e+00       5.119e+00       1.261e-02           0.048          -0.017           0.999       2.194e-02          0.1346
 433       2.975e+00       5.119e+00       1.878e-02           0.037          -0.013           0.999       2.595e-02          0.1543
 434       2.814e+00       5.119e+00       2.415e-02           0.024          -0.009           1.000       2.844e-02          0.1699
 435       2.641e+00       5.119e+00       2.778e-02           0.011          -0.004           1.000       2.928e-02          0.1892
 436       2.465e+00       5.119e+00       2.901e-02          -0.006           0.002           1.000       2.843e-02          0.2090
 437       2.297e+00       5.119e+00       2.700e-02          -0.033           0.012           0.999       2.594e-02          0.1764
 438       2.146e+00       5.119e+00       2.127e-02          -0.057           0.021           0.998       2.196e-02          0.1001
 439       2.021e+00       5.119e+00       1.363e-02          -0.077           0.028           0.997       1.669e-02         -0.0223
 440       1.930e+00       5.119e+00       6.383e-03          -0.091           0.033           0.995       1.043e-02         -0.2277
 441       1.878e+00       5.119e+00       1.571e-03          -0.098           0.035           0.995       3.548e-03         -0.7486
Strip 35
 442       3.380e+00       5.267e+00       3.508e-04           0.066          -0.024           0.998       2.777e-03          0.0427
 443       3.348e+00       5.267e+00       2.388e-03           0.063          -0.023           0.998       8.168e-03          0.0699
 444       3.276e+00       5.267e+00       6.763e-03           0.056          -0.021           0.998       1.308e-02          0.0952
 445       3.167e+00       5.267e+00       1.261e-02           0.048          -0.017           0.999       1.722e-02          0.1153
 446       3.029e+00       5.267e+00       1.878e-02           0.037          -0.013           0.999       2.037e-02          0.1315
 447       2.868e+00       5.267e+00       2.415e-02           0.024          -0.009           1.000       2.232e-02          0.1448
 448       2.695e+00       5.267e+00       2.778e-02           0.011          -0.004           1.000       2.298e-02          0.1637
 449       2.519e+00       5.267e+00       2.901e-02          -0.006           0.002           1.000       2.232e-02          0.1869
 450       2.350e+00       5.267e+00       2.700e-02          -0.033           0.012           0.999       2.036e-02          0.1622
 451       2.200e+00       5.267e+00       2.127e-02          -0.057           0.021           0.998       1.723e-02          0.0949
 452       2.075e+00       5.267e+00       1.363e-02          -0.077           0.028           0.997       1.310e-02         -0.0226
 453       1.984e+00       5.267e+00       6.383e-03          -0.091           0.033           0.995       8.188e-03         -0.2280
 454       1.931e+00       5.267e+00       1.571e-03          -0.098           0.035           0.995       2.785e-03         -0.7509
Strip 36
 455       3.420e+00       5.378e+00       3.508e-04           0.066          -0.024           0.998       1.997e-03          0.0356
 456       3.389e+00       5.378e+00       2.388e-03           0.063          -0.023           0.998       5.874e-03          0.0575
 457       3.316e+00       5.378e+00       6.763e-03           0.056          -0.021           0.998       9.407e-03          0.0771
 458       3.208e+00       5.378e+00       1.261e-02           0.048          -0.017           0.999       1.239e-02          0.0922
 459       3.069e+00       5.378e+00       1.878e-02           0.037          -0.013           0.999       1.465e-02          0.1044
 460       2.908e+00       5.378e+00       2.415e-02           0.024          -0.009           1.000       1.605e-02          0.1143
 461       2.735e+00       5.378e+00       2.778e-02           0.011          -0.004           1.000       1.653e-02          0.1306
 462       2.559e+00       5.378e+00       2.901e-02          -0.006           0.002           1.000       1.605e-02          0.1546
 463       2.391e+00       5.378e+00       2.700e-02          -0.033           0.012           0.999       1.464e-02          0.1390
 464       2.240e+00       5.378e+00       2.127e-02          -0.057           0.021           0.998       1.240e-02          0.0885
 465       2.115e+00       5.378e+00       1.363e-02          -0.077           0.028           0.997       9.421e-03         -0.0130
 466       2.024e+00       5.378e+00       6.383e-03          -0.091           0.033           0.995       5.889e-03         -0.2129
 467       1.972e+00       5.378e+00       1.571e-03          -0.098           0.035           0.995       2.003e-03         -0.7247
Strip 37
 468       3.448e+00       5.453e+00       3.508e-04           0.066          -0.024           0.998       1.204e-03          0.0272
 469       3.416e+00       5.453e+00       2.388e-03           0.063          -0.023           0.998       3.541e-03          0.0428
 470       3.344e+00       5.453e+00       6.763e-03           0.056          -0.021           0.998       5.670e-03          0.0561
 471       3.235e+00       5.453e+00       1.261e-02           0.048          -0.017           0.999       7.467e-03          0.0660
 472       3.096e+00       5.453e+00       1.878e-02           0.037          -0.013           0.999       8.828e-03          0.0740
 473       2.936e+00       5.453e+00       2.415e-02           0.024          -0.009           1.000       9.677e-03          0.0805
 474       2.762e+00       5.453e+00       2.778e-02           0.011          -0.004           1.000       9.964e-03          0.0923
 475       2.586e+00       5.453e+00       2.901e-02          -0.006           0.002           1.000       9.674e-03          0.1125
 476       2.418e+00       5.453e+00       2.700e-02          -0.033           0.012           0.999       8.827e-03          0.1037
 477       2.267e+00       5.453e+00       2.127e-02          -0.057           0.021           0.998       7.471e-03          0.0721
 478       2.143e+00       5.453e+00       1.363e-02          -0.077           0.028           0.997       5.679e-03          0.0047
 479       2.051e+00       5.453e+00       6.383e-03          -0.091           0.033           0.995       3.549e-03         -0.1657
 480       1.999e+00       5.453e+00       1.571e-03          -0.098           0.035           0.995       1.207e-03         -0.6493
Strip 38
 481       3.461e+00       5.491e+00       3.508e-04           0.066          -0.024           0.998       4.022e-04          0.0186
 482       3.430e+00       5.491e+00       2.388e-03           0.063          -0.023           0.998       1.183e-03          0.0262
 483       3.357e+00       5.491e+00       6.763e-03           0.056          -0.021           0.998       1.894e-03          0.0334
 484       3.249e+00       5.491e+00       1.261e-02           0.048          -0.017           0.999       2.495e-03          0.0388
 485       3.110e+00       5.491e+00       1.878e-02           0.037          -0.013           0.999       2.950e-03          0.0433
 486       2.949e+00       5.491e+00       2.415e-02           0.024          -0.009           1.000       3.233e-03          0.0470
 487       2.776e+00       5.491e+00       2.778e-02           0.011          -0.004           1.000       3.329e-03          0.0539
 488       2.600e+00       5.491e+00       2.901e-02          -0.006           0.002           1.000       3.232e-03          0.0665
 489       2.432e+00       5.491e+00       2.700e-02          -0.033           0.012           0.999       2.949e-03          0.0619
 490       2.281e+00       5.491e+00       2.127e-02          -0.057           0.021           0.998       2.496e-03          0.0445
 491       2.156e+00       5.491e+00       1.363e-02          -0.077           0.028           0.997       1.897e-03          0.0087
 492       2.065e+00       5.491e+00       6.383e-03          -0.091           0.033           0.995       1.186e-03         -0.0817
 493       2.013e+00       5.491e+00       1.571e-03          -0.098           0.035           0.995       4.034e-04         -0.4819










