xflr5 v6.47

Flying_wing
T1-55.0 m/s-VLM2-Inviscid
QInf  =   55.000000 m/s
Alpha =    0.000000
Beta  =    0.000°
Phi   =    0.000°
Ctrl  =    0.000
CL    =    0.158244
Cy    =   -0.000000
Cd    =    0.001093     ICd   =    0.001093     PCd   =    0.000000
Cl   = -5.89018e-17
Cm   =  -0.0248791
ICn   =   -0.000000     PCn   =   -0.000000 
XCP   =    0.850788     YCP   =    0.000000     ZCP   =    0.025497  
XNP   =    0.000000
Bending = 5440.813491

Main Wing
  y-span        Chord      Ai         Cl        PCd          ICd        CmGeom    CmAirf@chord/4    XTrtop    XTrBot      XCP       BM
   -5.4906     1.4700    -1.307    0.029890    0.000000    0.000682   -0.008885   -0.014013     0.0000    0.0000    0.7188    0.0000
   -5.4531     1.4700    -1.216    0.050929    0.000000    0.001081   -0.014804   -0.023541     0.0000    0.0000    0.7122    0.0574
   -5.3783     1.4700    -1.096    0.071705    0.000000    0.001372   -0.019884   -0.032185     0.0000    0.0000    0.6988    0.7556
   -5.2668     1.4700    -0.971    0.090326    0.000000    0.001530   -0.023534   -0.039029     0.0000    0.0000    0.6821    3.8304
   -5.1194     1.4700    -0.850    0.106445    0.000000    0.001580   -0.025818   -0.044078     0.0000    0.0000    0.6641   12.6083
   -4.9369     1.4700    -0.742    0.120108    0.000000    0.001555   -0.026996   -0.047600     0.0000    0.0000    0.6463   32.2177
   -4.7208     1.4700    -0.647    0.131554    0.000000    0.001486   -0.027383   -0.049951     0.0000    0.0000    0.6297   69.5854
   -4.4723     1.4700    -0.568    0.141086    0.000000    0.001400   -0.027274   -0.051477     0.0000    0.0000    0.6149   133.2617
   -4.1934     1.4700    -0.504    0.149007    0.000000    0.001309   -0.026895   -0.052457     0.0000    0.0000    0.6020   233.1156
   -3.8858     1.4700    -0.451    0.155577    0.000000    0.001224   -0.026402   -0.053091     0.0000    0.0000    0.5913   379.9405
   -3.5516     1.4700    -0.408    0.161007    0.000000    0.001147   -0.025890   -0.053510     0.0000    0.0000    0.5823   584.9974
   -3.1932     1.4700    -0.373    0.165472    0.000000    0.001078   -0.025408   -0.053794     0.0000    0.0000    0.5751   859.5227
   -2.8130     1.4700    -0.345    0.169109    0.000000    0.001020   -0.024982   -0.053992     0.0000    0.0000    0.5693   1214.2214
   -2.4135     1.4700    -0.323    0.172034    0.000000    0.000970   -0.024620   -0.054132     0.0000    0.0000    0.5647   1658.7694
   -1.9976     1.4700    -0.306    0.174340    0.000000    0.000930   -0.024324   -0.054231     0.0000    0.0000    0.5611   2201.3426
   -1.5680     1.4700    -0.292    0.176100    0.000000    0.000898   -0.024092   -0.054301     0.0000    0.0000    0.5584   2848.1916
   -1.1277     1.4700    -0.282    0.177372    0.000000    0.000874   -0.023922   -0.054349     0.0000    0.0000    0.5564   3603.2745
   -0.6797     1.4700    -0.276    0.178197    0.000000    0.000859   -0.023810   -0.054379     0.0000    0.0000    0.5552   4467.9608
   -0.2271     1.4700    -0.273    0.178603    0.000000    0.000851   -0.023755   -0.054393     0.0000    0.0000    0.5545   5440.8135
    0.2271     1.4700    -0.273    0.178603    0.000000    0.000851   -0.023755   -0.054393     0.0000    0.0000    0.5545   5440.8135
    0.6797     1.4700    -0.276    0.178197    0.000000    0.000859   -0.023810   -0.054379     0.0000    0.0000    0.5552   4467.9608
    1.1277     1.4700    -0.282    0.177372    0.000000    0.000874   -0.023922   -0.054349     0.0000    0.0000    0.5564   3603.2745
    1.5680     1.4700    -0.292    0.176100    0.000000    0.000898   -0.024092   -0.054301     0.0000    0.0000    0.5584   2848.1916
    1.9976     1.4700    -0.306    0.174340    0.000000    0.000930   -0.024324   -0.054231     0.0000    0.0000    0.5611   2201.3426
    2.4135     1.4700    -0.323    0.172034    0.000000    0.000970   -0.024620   -0.054132     0.0000    0.0000    0.5647   1658.7694
    2.8130     1.4700    -0.345    0.169109    0.000000    0.001020   -0.024982   -0.053992     0.0000    0.0000    0.5693   1214.2214
    3.1932     1.4700    -0.373    0.165472    0.000000    0.001078   -0.025408   -0.053794     0.0000    0.0000    0.5751   859.5227
    3.5516     1.4700    -0.408    0.161007    0.000000    0.001147   -0.025890   -0.053510     0.0000    0.0000    0.5823   584.9974
    3.8858     1.4700    -0.451    0.155577    0.000000    0.001224   -0.026402   -0.053091     0.0000    0.0000    0.5913   379.9405
    4.1934     1.4700    -0.504    0.149007    0.000000    0.001309   -0.026895   -0.052457     0.0000    0.0000    0.6020   233.1156
    4.4723     1.4700    -0.568    0.141086    0.000000    0.001400   -0.027274   -0.051477     0.0000    0.0000    0.6149   133.2617
    4.7208     1.4700    -0.647    0.131554    0.000000    0.001486   -0.027383   -0.049951     0.0000    0.0000    0.6297   69.5854
    4.9369     1.4700    -0.742    0.120108    0.000000    0.001555   -0.026996   -0.047600     0.0000    0.0000    0.6463   32.2177
    5.1194     1.4700    -0.850    0.106445    0.000000    0.001580   -0.025818   -0.044078     0.0000    0.0000    0.6641   12.6083
    5.2668     1.4700    -0.971    0.090326    0.000000    0.001530   -0.023534   -0.039029     0.0000    0.0000    0.6821    3.8304
    5.3783     1.4700    -1.096    0.071705    0.000000    0.001372   -0.019884   -0.032185     0.0000    0.0000    0.6988    0.7556
    5.4531     1.4700    -1.216    0.050929    0.000000    0.001081   -0.014804   -0.023541     0.0000    0.0000    0.7122    0.0574
    5.4906     1.4700    -1.307    0.029890    0.000000    0.000682   -0.008885   -0.014013     0.0000    0.0000    0.7188    0.0000


Main Wing Cp Coefficients
 Panel     CtrlPt.x        CtrlPt.y        CtrlPt.z       Nx      Ny       Nz        Area       Cp
Main WingCp Coefficients
Strip 1
   0       1.465e+00      -5.491e+00       3.508e-04           0.066           0.000           0.998       4.021e-04          0.0227
   1       1.433e+00      -5.491e+00       2.388e-03           0.063           0.000           0.998       1.183e-03          0.0312
   2       1.361e+00      -5.491e+00       6.763e-03           0.056           0.000           0.998       1.894e-03          0.0383
   3       1.252e+00      -5.491e+00       1.261e-02           0.048           0.000           0.999       2.494e-03          0.0431
   4       1.113e+00      -5.491e+00       1.878e-02           0.037           0.000           0.999       2.949e-03          0.0468
   5       9.526e-01      -5.491e+00       2.415e-02           0.024           0.000           1.000       3.233e-03          0.0493
   6       7.793e-01      -5.491e+00       2.778e-02           0.011           0.000           1.000       3.329e-03          0.0548
   7       6.034e-01      -5.491e+00       2.901e-02          -0.006           0.000           1.000       3.232e-03          0.0649
   8       4.351e-01      -5.491e+00       2.700e-02          -0.033           0.000           0.999       2.949e-03          0.0559
   9       2.843e-01      -5.491e+00       2.127e-02          -0.057           0.000           0.998       2.496e-03          0.0334
  10       1.597e-01      -5.491e+00       1.363e-02          -0.077           0.000           0.997       1.896e-03         -0.0084
  11       6.848e-02      -5.491e+00       6.383e-03          -0.091           0.000           0.996       1.185e-03         -0.1058
  12       1.602e-02      -5.491e+00       1.571e-03          -0.098           0.000           0.995       4.031e-04         -0.4846
Strip 2
  13       1.465e+00      -5.453e+00       3.508e-04           0.066           0.000           0.998       1.203e-03          0.0338
  14       1.433e+00      -5.453e+00       2.388e-03           0.063           0.000           0.998       3.540e-03          0.0512
  15       1.361e+00      -5.453e+00       6.763e-03           0.056           0.000           0.998       5.669e-03          0.0645
  16       1.252e+00      -5.453e+00       1.261e-02           0.048           0.000           0.999       7.466e-03          0.0734
  17       1.113e+00      -5.453e+00       1.878e-02           0.037           0.000           0.999       8.828e-03          0.0798
  18       9.526e-01      -5.453e+00       2.415e-02           0.024           0.000           1.000       9.676e-03          0.0843
  19       7.793e-01      -5.453e+00       2.778e-02           0.011           0.000           1.000       9.964e-03          0.0936
  20       6.034e-01      -5.453e+00       2.901e-02          -0.006           0.000           1.000       9.674e-03          0.1095
  21       4.351e-01      -5.453e+00       2.700e-02          -0.033           0.000           0.999       8.826e-03          0.0936
  22       2.843e-01      -5.453e+00       2.127e-02          -0.057           0.000           0.998       7.470e-03          0.0539
  23       1.597e-01      -5.453e+00       1.363e-02          -0.077           0.000           0.997       5.676e-03         -0.0214
  24       6.848e-02      -5.453e+00       6.383e-03          -0.091           0.000           0.996       3.547e-03         -0.1941
  25       1.602e-02      -5.453e+00       1.571e-03          -0.098           0.000           0.995       1.207e-03         -0.7030
Strip 3
  26       1.465e+00      -5.378e+00       3.508e-04           0.066           0.000           0.998       1.997e-03          0.0423
  27       1.433e+00      -5.378e+00       2.388e-03           0.063           0.000           0.998       5.873e-03          0.0673
  28       1.361e+00      -5.378e+00       6.763e-03           0.056           0.000           0.998       9.405e-03          0.0881
  29       1.252e+00      -5.378e+00       1.261e-02           0.048           0.000           0.999       1.239e-02          0.1022
  30       1.113e+00      -5.378e+00       1.878e-02           0.037           0.000           0.999       1.465e-02          0.1122
  31       9.526e-01      -5.378e+00       2.415e-02           0.024           0.000           1.000       1.605e-02          0.1192
  32       7.793e-01      -5.378e+00       2.778e-02           0.011           0.000           1.000       1.653e-02          0.1317
  33       6.034e-01      -5.378e+00       2.901e-02          -0.006           0.000           1.000       1.605e-02          0.1502
  34       4.351e-01      -5.378e+00       2.700e-02          -0.033           0.000           0.999       1.464e-02          0.1260
  35       2.843e-01      -5.378e+00       2.127e-02          -0.057           0.000           0.998       1.239e-02          0.0670
  36       1.597e-01      -5.378e+00       1.363e-02          -0.077           0.000           0.997       9.417e-03         -0.0411
  37       6.848e-02      -5.378e+00       6.383e-03          -0.091           0.000           0.996       5.886e-03         -0.2543
  38       1.602e-02      -5.378e+00       1.571e-03          -0.098           0.000           0.995       2.002e-03         -0.8285
Strip 4
  39       1.465e+00      -5.267e+00       3.508e-04           0.066           0.000           0.998       2.776e-03          0.0489
  40       1.433e+00      -5.267e+00       2.388e-03           0.063           0.000           0.998       8.166e-03          0.0796
  41       1.361e+00      -5.267e+00       6.763e-03           0.056           0.000           0.998       1.308e-02          0.1067
  42       1.252e+00      -5.267e+00       1.261e-02           0.048           0.000           0.999       1.722e-02          0.1264
  43       1.113e+00      -5.267e+00       1.878e-02           0.037          -0.000           0.999       2.036e-02          0.1404
  44       9.526e-01      -5.267e+00       2.415e-02           0.024          -0.000           1.000       2.232e-02          0.1500
  45       7.793e-01      -5.267e+00       2.778e-02           0.011           0.000           1.000       2.298e-02          0.1643
  46       6.034e-01      -5.267e+00       2.901e-02          -0.006          -0.000           1.000       2.232e-02          0.1819
  47       4.351e-01      -5.267e+00       2.700e-02          -0.033          -0.000           0.999       2.036e-02          0.1494
  48       2.843e-01      -5.267e+00       2.127e-02          -0.057           0.000           0.998       1.723e-02          0.0745
  49       1.597e-01      -5.267e+00       1.363e-02          -0.077           0.000           0.997       1.309e-02         -0.0527
  50       6.848e-02      -5.267e+00       6.383e-03          -0.091           0.000           0.996       8.183e-03         -0.2819
  51       1.602e-02      -5.267e+00       1.571e-03          -0.098           0.000           0.995       2.784e-03         -0.8891
Strip 5
  52       1.465e+00      -5.119e+00       3.508e-04           0.066          -0.000           0.998       3.537e-03          0.0541
  53       1.433e+00      -5.119e+00       2.388e-03           0.063           0.000           0.998       1.040e-02          0.0890
  54       1.361e+00      -5.119e+00       6.763e-03           0.056           0.000           0.998       1.666e-02          0.1211
  55       1.252e+00      -5.119e+00       1.261e-02           0.048           0.000           0.999       2.194e-02          0.1454
  56       1.113e+00      -5.119e+00       1.878e-02           0.037           0.000           0.999       2.594e-02          0.1631
  57       9.526e-01      -5.119e+00       2.415e-02           0.024           0.000           1.000       2.844e-02          0.1751
  58       7.793e-01      -5.119e+00       2.778e-02           0.011           0.000           1.000       2.928e-02          0.1899
  59       6.034e-01      -5.119e+00       2.901e-02          -0.006           0.000           1.000       2.843e-02          0.2052
  60       4.351e-01      -5.119e+00       2.700e-02          -0.033           0.000           0.999       2.594e-02          0.1659
  61       2.843e-01      -5.119e+00       2.127e-02          -0.057           0.000           0.998       2.195e-02          0.0814
  62       1.597e-01      -5.119e+00       1.363e-02          -0.077           0.000           0.997       1.668e-02         -0.0542
  63       6.848e-02      -5.119e+00       6.383e-03          -0.091           0.000           0.996       1.043e-02         -0.2888
  64       1.602e-02      -5.119e+00       1.571e-03          -0.098           0.000           0.995       3.546e-03         -0.9056
Strip 6
  65       1.465e+00      -4.937e+00       3.508e-04           0.066           0.000           0.998       4.273e-03          0.0581
  66       1.433e+00      -4.937e+00       2.388e-03           0.063           0.000           0.998       1.257e-02          0.0961
  67       1.361e+00      -4.937e+00       6.763e-03           0.056           0.000           0.998       2.013e-02          0.1319
  68       1.252e+00      -4.937e+00       1.261e-02           0.048           0.000           0.999       2.651e-02          0.1598
  69       1.113e+00      -4.937e+00       1.878e-02           0.037           0.000           0.999       3.134e-02          0.1805
  70       9.526e-01      -4.937e+00       2.415e-02           0.024           0.000           1.000       3.436e-02          0.1942
  71       7.793e-01      -4.937e+00       2.778e-02           0.011           0.000           1.000       3.538e-02          0.2091
  72       6.034e-01      -4.937e+00       2.901e-02          -0.006          -0.000           1.000       3.435e-02          0.2222
  73       4.351e-01      -4.937e+00       2.700e-02          -0.033          -0.000           0.999       3.134e-02          0.1788
  74       2.843e-01      -4.937e+00       2.127e-02          -0.057           0.000           0.998       2.652e-02          0.0897
  75       1.597e-01      -4.937e+00       1.363e-02          -0.077           0.000           0.997       2.016e-02         -0.0488
  76       6.848e-02      -4.937e+00       6.383e-03          -0.091           0.000           0.996       1.260e-02         -0.2834
  77       1.602e-02      -4.937e+00       1.571e-03          -0.098           0.000           0.995       4.284e-03         -0.8942
Strip 7
  78       1.465e+00      -4.721e+00       3.508e-04           0.066           0.000           0.998       4.980e-03          0.0611
  79       1.433e+00      -4.721e+00       2.388e-03           0.063          -0.000           0.998       1.465e-02          0.1015
  80       1.361e+00      -4.721e+00       6.763e-03           0.056          -0.000           0.998       2.346e-02          0.1399
  81       1.252e+00      -4.721e+00       1.261e-02           0.048           0.000           0.999       3.090e-02          0.1703
  82       1.113e+00      -4.721e+00       1.878e-02           0.037           0.000           0.999       3.653e-02          0.1931
  83       9.526e-01      -4.721e+00       2.415e-02           0.024           0.000           1.000       4.004e-02          0.2081
  84       7.793e-01      -4.721e+00       2.778e-02           0.011           0.000           1.000       4.123e-02          0.2231
  85       6.034e-01      -4.721e+00       2.901e-02          -0.006           0.000           1.000       4.003e-02          0.2350
  86       4.351e-01      -4.721e+00       2.700e-02          -0.033           0.000           0.999       3.653e-02          0.1895
  87       2.843e-01      -4.721e+00       2.127e-02          -0.057           0.000           0.998       3.091e-02          0.0988
  88       1.597e-01      -4.721e+00       1.363e-02          -0.077          -0.000           0.997       2.349e-02         -0.0399
  89       6.848e-02      -4.721e+00       6.383e-03          -0.091          -0.000           0.996       1.468e-02         -0.2713
  90       1.602e-02      -4.721e+00       1.571e-03          -0.098          -0.000           0.995       4.994e-03         -0.8671
Strip 8
  91       1.465e+00      -4.472e+00       3.508e-04           0.066           0.000           0.998       5.654e-03          0.0634
  92       1.433e+00      -4.472e+00       2.388e-03           0.063           0.000           0.998       1.663e-02          0.1054
  93       1.361e+00      -4.472e+00       6.763e-03           0.056           0.000           0.998       2.663e-02          0.1456
  94       1.252e+00      -4.472e+00       1.261e-02           0.048           0.000           0.999       3.507e-02          0.1780
  95       1.113e+00      -4.472e+00       1.878e-02           0.037           0.000           0.999       4.147e-02          0.2023
  96       9.526e-01      -4.472e+00       2.415e-02           0.024           0.000           1.000       4.546e-02          0.2182
  97       7.793e-01      -4.472e+00       2.778e-02           0.011           0.000           1.000       4.681e-02          0.2334
  98       6.034e-01      -4.472e+00       2.901e-02          -0.006           0.000           1.000       4.544e-02          0.2449
  99       4.351e-01      -4.472e+00       2.700e-02          -0.033           0.000           0.999       4.146e-02          0.1988
 100       2.843e-01      -4.472e+00       2.127e-02          -0.057           0.000           0.998       3.509e-02          0.1080
 101       1.597e-01      -4.472e+00       1.363e-02          -0.077           0.000           0.997       2.667e-02         -0.0295
 102       6.848e-02      -4.472e+00       6.383e-03          -0.091           0.000           0.996       1.667e-02         -0.2562
 103       1.602e-02      -4.472e+00       1.571e-03          -0.098           0.000           0.995       5.669e-03         -0.8326
Strip 9
 104       1.465e+00      -4.193e+00       3.508e-04           0.066           0.000           0.998       6.288e-03          0.0650
 105       1.433e+00      -4.193e+00       2.388e-03           0.063           0.000           0.998       1.850e-02          0.1082
 106       1.361e+00      -4.193e+00       6.763e-03           0.056           0.000           0.998       2.962e-02          0.1498
 107       1.252e+00      -4.193e+00       1.261e-02           0.048           0.000           0.999       3.901e-02          0.1834
 108       1.113e+00      -4.193e+00       1.878e-02           0.037           0.000           0.999       4.612e-02          0.2089
 109       9.526e-01      -4.193e+00       2.415e-02           0.024          -0.000           1.000       5.056e-02          0.2256
 110       7.793e-01      -4.193e+00       2.778e-02           0.011          -0.000           1.000       5.206e-02          0.2411
 111       6.034e-01      -4.193e+00       2.901e-02          -0.006           0.000           1.000       5.054e-02          0.2528
 112       4.351e-01      -4.193e+00       2.700e-02          -0.033           0.000           0.999       4.612e-02          0.2069
 113       2.843e-01      -4.193e+00       2.127e-02          -0.057          -0.000           0.998       3.903e-02          0.1166
 114       1.597e-01      -4.193e+00       1.363e-02          -0.077          -0.000           0.997       2.966e-02         -0.0190
 115       6.848e-02      -4.193e+00       6.383e-03          -0.091           0.000           0.996       1.854e-02         -0.2405
 116       1.602e-02      -4.193e+00       1.571e-03          -0.098           0.000           0.995       6.305e-03         -0.7963
Strip 10
 117       1.465e+00      -3.886e+00       3.508e-04           0.066          -0.000           0.998       6.880e-03          0.0662
 118       1.433e+00      -3.886e+00       2.388e-03           0.063           0.000           0.998       2.024e-02          0.1103
 119       1.361e+00      -3.886e+00       6.763e-03           0.056           0.000           0.998       3.241e-02          0.1529
 120       1.252e+00      -3.886e+00       1.261e-02           0.048           0.000           0.999       4.268e-02          0.1874
 121       1.113e+00      -3.886e+00       1.878e-02           0.037           0.000           0.999       5.046e-02          0.2137
 122       9.526e-01      -3.886e+00       2.415e-02           0.024           0.000           1.000       5.532e-02          0.2311
 123       7.793e-01      -3.886e+00       2.778e-02           0.011           0.000           1.000       5.696e-02          0.2471
 124       6.034e-01      -3.886e+00       2.901e-02          -0.006          -0.000           1.000       5.530e-02          0.2592
 125       4.351e-01      -3.886e+00       2.700e-02          -0.033          -0.000           0.999       5.046e-02          0.2137
 126       2.843e-01      -3.886e+00       2.127e-02          -0.057          -0.000           0.998       4.270e-02          0.1244
 127       1.597e-01      -3.886e+00       1.363e-02          -0.077          -0.000           0.997       3.245e-02         -0.0093
 128       6.848e-02      -3.886e+00       6.383e-03          -0.091           0.000           0.996       2.028e-02         -0.2255
 129       1.602e-02      -3.886e+00       1.571e-03          -0.098           0.000           0.995       6.898e-03         -0.7614
Strip 11
 130       1.465e+00      -3.552e+00       3.508e-04           0.066           0.000           0.998       7.425e-03          0.0671
 131       1.433e+00      -3.552e+00       2.388e-03           0.063           0.000           0.998       2.184e-02          0.1119
 132       1.361e+00      -3.552e+00       6.763e-03           0.056           0.000           0.998       3.497e-02          0.1552
 133       1.252e+00      -3.552e+00       1.261e-02           0.048           0.000           0.999       4.606e-02          0.1904
 134       1.113e+00      -3.552e+00       1.878e-02           0.037           0.000           0.999       5.446e-02          0.2173
 135       9.526e-01      -3.552e+00       2.415e-02           0.024          -0.000           1.000       5.969e-02          0.2353
 136       7.793e-01      -3.552e+00       2.778e-02           0.011          -0.000           1.000       6.147e-02          0.2518
 137       6.034e-01      -3.552e+00       2.901e-02          -0.006           0.000           1.000       5.968e-02          0.2644
 138       4.351e-01      -3.552e+00       2.700e-02          -0.033           0.000           0.999       5.445e-02          0.2195
 139       2.843e-01      -3.552e+00       2.127e-02          -0.057           0.000           0.998       4.608e-02          0.1311
 140       1.597e-01      -3.552e+00       1.363e-02          -0.077           0.000           0.997       3.502e-02         -0.0006
 141       6.848e-02      -3.552e+00       6.383e-03          -0.091           0.000           0.996       2.189e-02         -0.2120
 142       1.602e-02      -3.552e+00       1.571e-03          -0.098           0.000           0.995       7.444e-03         -0.7297
Strip 12
 143       1.465e+00      -3.193e+00       3.508e-04           0.066           0.000           0.998       7.918e-03          0.0677
 144       1.433e+00      -3.193e+00       2.388e-03           0.063           0.000           0.998       2.329e-02          0.1131
 145       1.361e+00      -3.193e+00       6.763e-03           0.056           0.000           0.998       3.730e-02          0.1569
 146       1.252e+00      -3.193e+00       1.261e-02           0.048           0.000           0.999       4.912e-02          0.1927
 147       1.113e+00      -3.193e+00       1.878e-02           0.037           0.000           0.999       5.808e-02          0.2201
 148       9.526e-01      -3.193e+00       2.415e-02           0.024           0.000           1.000       6.367e-02          0.2386
 149       7.793e-01      -3.193e+00       2.778e-02           0.011           0.000           1.000       6.556e-02          0.2556
 150       6.034e-01      -3.193e+00       2.901e-02          -0.006           0.000           1.000       6.365e-02          0.2686
 151       4.351e-01      -3.193e+00       2.700e-02          -0.033           0.000           0.999       5.807e-02          0.2243
 152       2.843e-01      -3.193e+00       2.127e-02          -0.057          -0.000           0.998       4.915e-02          0.1368
 153       1.597e-01      -3.193e+00       1.363e-02          -0.077          -0.000           0.997       3.735e-02          0.0069
 154       6.848e-02      -3.193e+00       6.383e-03          -0.091           0.000           0.996       2.334e-02         -0.2002
 155       1.602e-02      -3.193e+00       1.571e-03          -0.098           0.000           0.995       7.939e-03         -0.7020
Strip 13
 156       1.465e+00      -2.813e+00       3.508e-04           0.066           0.000           0.998       8.358e-03          0.0682
 157       1.433e+00      -2.813e+00       2.388e-03           0.063           0.000           0.998       2.458e-02          0.1140
 158       1.361e+00      -2.813e+00       6.763e-03           0.056           0.000           0.998       3.937e-02          0.1582
 159       1.252e+00      -2.813e+00       1.261e-02           0.048           0.000           0.999       5.185e-02          0.1944
 160       1.113e+00      -2.813e+00       1.878e-02           0.037           0.000           0.999       6.131e-02          0.2223
 161       9.526e-01      -2.813e+00       2.415e-02           0.024           0.000           1.000       6.720e-02          0.2411
 162       7.793e-01      -2.813e+00       2.778e-02           0.011           0.000           1.000       6.920e-02          0.2585
 163       6.034e-01      -2.813e+00       2.901e-02          -0.006          -0.000           1.000       6.718e-02          0.2719
 164       4.351e-01      -2.813e+00       2.700e-02          -0.033          -0.000           0.999       6.130e-02          0.2283
 165       2.843e-01      -2.813e+00       2.127e-02          -0.057           0.000           0.998       5.188e-02          0.1416
 166       1.597e-01      -2.813e+00       1.363e-02          -0.077           0.000           0.997       3.942e-02          0.0133
 167       6.848e-02      -2.813e+00       6.383e-03          -0.091           0.000           0.996       2.464e-02         -0.1902
 168       1.602e-02      -2.813e+00       1.571e-03          -0.098           0.000           0.995       8.380e-03         -0.6784
Strip 14
 169       1.465e+00      -2.414e+00       3.508e-04           0.066           0.000           0.998       8.741e-03          0.0686
 170       1.433e+00      -2.414e+00       2.388e-03           0.063           0.000           0.998       2.571e-02          0.1146
 171       1.361e+00      -2.414e+00       6.763e-03           0.056           0.000           0.998       4.117e-02          0.1592
 172       1.252e+00      -2.414e+00       1.261e-02           0.048           0.000           0.999       5.422e-02          0.1958
 173       1.113e+00      -2.414e+00       1.878e-02           0.037           0.000           0.999       6.412e-02          0.2239
 174       9.526e-01      -2.414e+00       2.415e-02           0.024           0.000           1.000       7.028e-02          0.2431
 175       7.793e-01      -2.414e+00       2.778e-02           0.011           0.000           1.000       7.237e-02          0.2608
 176       6.034e-01      -2.414e+00       2.901e-02          -0.006           0.000           1.000       7.026e-02          0.2746
 177       4.351e-01      -2.414e+00       2.700e-02          -0.033           0.000           0.999       6.411e-02          0.2314
 178       2.843e-01      -2.414e+00       2.127e-02          -0.057           0.000           0.998       5.425e-02          0.1455
 179       1.597e-01      -2.414e+00       1.363e-02          -0.077           0.000           0.997       4.123e-02          0.0185
 180       6.848e-02      -2.414e+00       6.383e-03          -0.091           0.000           0.996       2.577e-02         -0.1819
 181       1.602e-02      -2.414e+00       1.571e-03          -0.098           0.000           0.995       8.764e-03         -0.6588
Strip 15
 182       1.465e+00      -1.998e+00       3.508e-04           0.066           0.000           0.998       9.064e-03          0.0689
 183       1.433e+00      -1.998e+00       2.388e-03           0.063           0.000           0.998       2.666e-02          0.1152
 184       1.361e+00      -1.998e+00       6.763e-03           0.056           0.000           0.998       4.269e-02          0.1600
 185       1.252e+00      -1.998e+00       1.261e-02           0.048           0.000           0.999       5.623e-02          0.1968
 186       1.113e+00      -1.998e+00       1.878e-02           0.037           0.000           0.999       6.649e-02          0.2252
 187       9.526e-01      -1.998e+00       2.415e-02           0.024           0.000           1.000       7.288e-02          0.2447
 188       7.793e-01      -1.998e+00       2.778e-02           0.011           0.000           1.000       7.504e-02          0.2627
 189       6.034e-01      -1.998e+00       2.901e-02          -0.006           0.000           1.000       7.286e-02          0.2768
 190       4.351e-01      -1.998e+00       2.700e-02          -0.033           0.000           0.999       6.648e-02          0.2339
 191       2.843e-01      -1.998e+00       2.127e-02          -0.057           0.000           0.998       5.626e-02          0.1486
 192       1.597e-01      -1.998e+00       1.363e-02          -0.077           0.000           0.997       4.275e-02          0.0226
 193       6.848e-02      -1.998e+00       6.383e-03          -0.091           0.000           0.996       2.672e-02         -0.1752
 194       1.602e-02      -1.998e+00       1.571e-03          -0.098           0.000           0.995       9.088e-03         -0.6431
Strip 16
 195       1.465e+00      -1.568e+00       3.508e-04           0.066           0.000           0.998       9.325e-03          0.0692
 196       1.433e+00      -1.568e+00       2.388e-03           0.063          -0.000           0.998       2.743e-02          0.1156
 197       1.361e+00      -1.568e+00       6.763e-03           0.056          -0.000           0.998       4.392e-02          0.1606
 198       1.252e+00      -1.568e+00       1.261e-02           0.048           0.000           0.999       5.785e-02          0.1976
 199       1.113e+00      -1.568e+00       1.878e-02           0.037           0.000           0.999       6.840e-02          0.2262
 200       9.526e-01      -1.568e+00       2.415e-02           0.024           0.000           1.000       7.498e-02          0.2458
 201       7.793e-01      -1.568e+00       2.778e-02           0.011           0.000           1.000       7.720e-02          0.2640
 202       6.034e-01      -1.568e+00       2.901e-02          -0.006          -0.000           1.000       7.496e-02          0.2784
 203       4.351e-01      -1.568e+00       2.700e-02          -0.033          -0.000           0.999       6.839e-02          0.2359
 204       2.843e-01      -1.568e+00       2.127e-02          -0.057          -0.000           0.998       5.788e-02          0.1510
 205       1.597e-01      -1.568e+00       1.363e-02          -0.077          -0.000           0.997       4.398e-02          0.0258
 206       6.848e-02      -1.568e+00       6.383e-03          -0.091           0.000           0.996       2.749e-02         -0.1701
 207       1.602e-02      -1.568e+00       1.571e-03          -0.098          -0.000           0.995       9.350e-03         -0.6309
Strip 17
 208       1.465e+00      -1.128e+00       3.508e-04           0.066           0.000           0.998       9.523e-03          0.0693
 209       1.433e+00      -1.128e+00       2.388e-03           0.063           0.000           0.998       2.801e-02          0.1158
 210       1.361e+00      -1.128e+00       6.763e-03           0.056           0.000           0.998       4.485e-02          0.1610
 211       1.252e+00      -1.128e+00       1.261e-02           0.048           0.000           0.999       5.907e-02          0.1981
 212       1.113e+00      -1.128e+00       1.878e-02           0.037           0.000           0.999       6.985e-02          0.2269
 213       9.526e-01      -1.128e+00       2.415e-02           0.024          -0.000           1.000       7.656e-02          0.2466
 214       7.793e-01      -1.128e+00       2.778e-02           0.011          -0.000           1.000       7.884e-02          0.2650
 215       6.034e-01      -1.128e+00       2.901e-02          -0.006           0.000           1.000       7.654e-02          0.2795
 216       4.351e-01      -1.128e+00       2.700e-02          -0.033           0.000           0.999       6.984e-02          0.2372
 217       2.843e-01      -1.128e+00       2.127e-02          -0.057           0.000           0.998       5.910e-02          0.1527
 218       1.597e-01      -1.128e+00       1.363e-02          -0.077          -0.000           0.997       4.491e-02          0.0282
 219       6.848e-02      -1.128e+00       6.383e-03          -0.091           0.000           0.996       2.807e-02         -0.1663
 220       1.602e-02      -1.128e+00       1.571e-03          -0.098           0.000           0.995       9.548e-03         -0.6220
Strip 18
 221       1.465e+00      -6.797e-01       3.508e-04           0.066           0.000           0.998       9.655e-03          0.0694
 222       1.433e+00      -6.797e-01       2.388e-03           0.063          -0.000           0.998       2.840e-02          0.1160
 223       1.361e+00      -6.797e-01       6.763e-03           0.056          -0.000           0.998       4.548e-02          0.1613
 224       1.252e+00      -6.797e-01       1.261e-02           0.048           0.000           0.999       5.989e-02          0.1985
 225       1.113e+00      -6.797e-01       1.878e-02           0.037           0.000           0.999       7.082e-02          0.2273
 226       9.526e-01      -6.797e-01       2.415e-02           0.024           0.000           1.000       7.763e-02          0.2472
 227       7.793e-01      -6.797e-01       2.778e-02           0.011           0.000           1.000       7.993e-02          0.2656
 228       6.034e-01      -6.797e-01       2.901e-02          -0.006           0.000           1.000       7.761e-02          0.2803
 229       4.351e-01      -6.797e-01       2.700e-02          -0.033          -0.000           0.999       7.081e-02          0.2381
 230       2.843e-01      -6.797e-01       2.127e-02          -0.057           0.000           0.998       5.992e-02          0.1538
 231       1.597e-01      -6.797e-01       1.363e-02          -0.077           0.000           0.997       4.554e-02          0.0297
 232       6.848e-02      -6.797e-01       6.383e-03          -0.091           0.000           0.996       2.846e-02         -0.1639
 233       1.602e-02      -6.797e-01       1.571e-03          -0.098           0.000           0.995       9.680e-03         -0.6162
Strip 19
 234       1.465e+00      -2.271e-01       3.508e-04           0.066           0.000           0.998       9.721e-03          0.0695
 235       1.433e+00      -2.271e-01       2.388e-03           0.063           0.000           0.998       2.859e-02          0.1161
 236       1.361e+00      -2.271e-01       6.763e-03           0.056           0.000           0.998       4.579e-02          0.1614
 237       1.252e+00      -2.271e-01       1.261e-02           0.048           0.000           0.999       6.031e-02          0.1986
 238       1.113e+00      -2.271e-01       1.878e-02           0.037           0.000           0.999       7.131e-02          0.2275
 239       9.526e-01      -2.271e-01       2.415e-02           0.024           0.000           1.000       7.816e-02          0.2474
 240       7.793e-01      -2.271e-01       2.778e-02           0.011           0.000           1.000       8.048e-02          0.2659
 241       6.034e-01      -2.271e-01       2.901e-02          -0.006           0.000           1.000       7.814e-02          0.2806
 242       4.351e-01      -2.271e-01       2.700e-02          -0.033           0.000           0.999       7.130e-02          0.2386
 243       2.843e-01      -2.271e-01       2.127e-02          -0.057           0.000           0.998       6.034e-02          0.1544
 244       1.597e-01      -2.271e-01       1.363e-02          -0.077           0.000           0.997       4.585e-02          0.0304
 245       6.848e-02      -2.271e-01       6.383e-03          -0.091           0.000           0.996       2.866e-02         -0.1627
 246       1.602e-02      -2.271e-01       1.571e-03          -0.098           0.000           0.995       9.747e-03         -0.6133
Strip 20
 247       1.465e+00       2.271e-01       3.508e-04           0.066           0.000           0.998       9.721e-03          0.0695
 248       1.433e+00       2.271e-01       2.388e-03           0.063           0.000           0.998       2.859e-02          0.1161
 249       1.361e+00       2.271e-01       6.763e-03           0.056           0.000           0.998       4.579e-02          0.1614
 250       1.252e+00       2.271e-01       1.261e-02           0.048           0.000           0.999       6.031e-02          0.1986
 251       1.113e+00       2.271e-01       1.878e-02           0.037           0.000           0.999       7.131e-02          0.2275
 252       9.526e-01       2.271e-01       2.415e-02           0.024           0.000           1.000       7.816e-02          0.2474
 253       7.793e-01       2.271e-01       2.778e-02           0.011           0.000           1.000       8.048e-02          0.2659
 254       6.034e-01       2.271e-01       2.901e-02          -0.006           0.000           1.000       7.814e-02          0.2806
 255       4.351e-01       2.271e-01       2.700e-02          -0.033           0.000           0.999       7.130e-02          0.2386
 256       2.843e-01       2.271e-01       2.127e-02          -0.057           0.000           0.998       6.034e-02          0.1544
 257       1.597e-01       2.271e-01       1.363e-02          -0.077           0.000           0.997       4.585e-02          0.0304
 258       6.848e-02       2.271e-01       6.383e-03          -0.091           0.000           0.996       2.866e-02         -0.1627
 259       1.602e-02       2.271e-01       1.571e-03          -0.098           0.000           0.995       9.747e-03         -0.6133
Strip 21
 260       1.465e+00       6.797e-01       3.508e-04           0.066           0.000           0.998       9.655e-03          0.0694
 261       1.433e+00       6.797e-01       2.388e-03           0.063           0.000           0.998       2.840e-02          0.1160
 262       1.361e+00       6.797e-01       6.763e-03           0.056           0.000           0.998       4.548e-02          0.1613
 263       1.252e+00       6.797e-01       1.261e-02           0.048           0.000           0.999       5.989e-02          0.1985
 264       1.113e+00       6.797e-01       1.878e-02           0.037           0.000           0.999       7.082e-02          0.2273
 265       9.526e-01       6.797e-01       2.415e-02           0.024           0.000           1.000       7.763e-02          0.2472
 266       7.793e-01       6.797e-01       2.778e-02           0.011           0.000           1.000       7.993e-02          0.2656
 267       6.034e-01       6.797e-01       2.901e-02          -0.006          -0.000           1.000       7.761e-02          0.2803
 268       4.351e-01       6.797e-01       2.700e-02          -0.033          -0.000           0.999       7.081e-02          0.2381
 269       2.843e-01       6.797e-01       2.127e-02          -0.057          -0.000           0.998       5.992e-02          0.1538
 270       1.597e-01       6.797e-01       1.363e-02          -0.077          -0.000           0.997       4.554e-02          0.0297
 271       6.848e-02       6.797e-01       6.383e-03          -0.091          -0.000           0.996       2.846e-02         -0.1639
 272       1.602e-02       6.797e-01       1.571e-03          -0.098           0.000           0.995       9.680e-03         -0.6162
Strip 22
 273       1.465e+00       1.128e+00       3.508e-04           0.066          -0.000           0.998       9.523e-03          0.0693
 274       1.433e+00       1.128e+00       2.388e-03           0.063           0.000           0.998       2.801e-02          0.1158
 275       1.361e+00       1.128e+00       6.763e-03           0.056           0.000           0.998       4.485e-02          0.1610
 276       1.252e+00       1.128e+00       1.261e-02           0.048           0.000           0.999       5.907e-02          0.1981
 277       1.113e+00       1.128e+00       1.878e-02           0.037           0.000           0.999       6.985e-02          0.2269
 278       9.526e-01       1.128e+00       2.415e-02           0.024          -0.000           1.000       7.656e-02          0.2466
 279       7.793e-01       1.128e+00       2.778e-02           0.011          -0.000           1.000       7.884e-02          0.2650
 280       6.034e-01       1.128e+00       2.901e-02          -0.006           0.000           1.000       7.654e-02          0.2795
 281       4.351e-01       1.128e+00       2.700e-02          -0.033           0.000           0.999       6.984e-02          0.2372
 282       2.843e-01       1.128e+00       2.127e-02          -0.057           0.000           0.998       5.910e-02          0.1527
 283       1.597e-01       1.128e+00       1.363e-02          -0.077           0.000           0.997       4.491e-02          0.0282
 284       6.848e-02       1.128e+00       6.383e-03          -0.091           0.000           0.996       2.807e-02         -0.1663
 285       1.602e-02       1.128e+00       1.571e-03          -0.098           0.000           0.995       9.548e-03         -0.6220
Strip 23
 286       1.465e+00       1.568e+00       3.508e-04           0.066           0.000           0.998       9.325e-03          0.0692
 287       1.433e+00       1.568e+00       2.388e-03           0.063           0.000           0.998       2.743e-02          0.1156
 288       1.361e+00       1.568e+00       6.763e-03           0.056           0.000           0.998       4.392e-02          0.1606
 289       1.252e+00       1.568e+00       1.261e-02           0.048           0.000           0.999       5.785e-02          0.1976
 290       1.113e+00       1.568e+00       1.878e-02           0.037           0.000           0.999       6.840e-02          0.2262
 291       9.526e-01       1.568e+00       2.415e-02           0.024           0.000           1.000       7.498e-02          0.2458
 292       7.793e-01       1.568e+00       2.778e-02           0.011           0.000           1.000       7.720e-02          0.2640
 293       6.034e-01       1.568e+00       2.901e-02          -0.006           0.000           1.000       7.496e-02          0.2784
 294       4.351e-01       1.568e+00       2.700e-02          -0.033           0.000           0.999       6.839e-02          0.2359
 295       2.843e-01       1.568e+00       2.127e-02          -0.057           0.000           0.998       5.788e-02          0.1510
 296       1.597e-01       1.568e+00       1.363e-02          -0.077           0.000           0.997       4.398e-02          0.0258
 297       6.848e-02       1.568e+00       6.383e-03          -0.091          -0.000           0.996       2.749e-02         -0.1701
 298       1.602e-02       1.568e+00       1.571e-03          -0.098          -0.000           0.995       9.350e-03         -0.6309
Strip 24
 299       1.465e+00       1.998e+00       3.508e-04           0.066           0.000           0.998       9.064e-03          0.0689
 300       1.433e+00       1.998e+00       2.388e-03           0.063           0.000           0.998       2.666e-02          0.1152
 301       1.361e+00       1.998e+00       6.763e-03           0.056           0.000           0.998       4.269e-02          0.1600
 302       1.252e+00       1.998e+00       1.261e-02           0.048           0.000           0.999       5.623e-02          0.1968
 303       1.113e+00       1.998e+00       1.878e-02           0.037           0.000           0.999       6.649e-02          0.2252
 304       9.526e-01       1.998e+00       2.415e-02           0.024          -0.000           1.000       7.288e-02          0.2447
 305       7.793e-01       1.998e+00       2.778e-02           0.011          -0.000           1.000       7.504e-02          0.2627
 306       6.034e-01       1.998e+00       2.901e-02          -0.006          -0.000           1.000       7.286e-02          0.2768
 307       4.351e-01       1.998e+00       2.700e-02          -0.033          -0.000           0.999       6.648e-02          0.2339
 308       2.843e-01       1.998e+00       2.127e-02          -0.057          -0.000           0.998       5.626e-02          0.1486
 309       1.597e-01       1.998e+00       1.363e-02          -0.077          -0.000           0.997       4.275e-02          0.0226
 310       6.848e-02       1.998e+00       6.383e-03          -0.091           0.000           0.996       2.672e-02         -0.1752
 311       1.602e-02       1.998e+00       1.571e-03          -0.098           0.000           0.995       9.088e-03         -0.6431
Strip 25
 312       1.465e+00       2.414e+00       3.508e-04           0.066           0.000           0.998       8.741e-03          0.0686
 313       1.433e+00       2.414e+00       2.388e-03           0.063           0.000           0.998       2.571e-02          0.1146
 314       1.361e+00       2.414e+00       6.763e-03           0.056           0.000           0.998       4.117e-02          0.1592
 315       1.252e+00       2.414e+00       1.261e-02           0.048           0.000           0.999       5.422e-02          0.1958
 316       1.113e+00       2.414e+00       1.878e-02           0.037           0.000           0.999       6.412e-02          0.2239
 317       9.526e-01       2.414e+00       2.415e-02           0.024           0.000           1.000       7.028e-02          0.2431
 318       7.793e-01       2.414e+00       2.778e-02           0.011           0.000           1.000       7.237e-02          0.2608
 319       6.034e-01       2.414e+00       2.901e-02          -0.006           0.000           1.000       7.026e-02          0.2746
 320       4.351e-01       2.414e+00       2.700e-02          -0.033           0.000           0.999       6.411e-02          0.2314
 321       2.843e-01       2.414e+00       2.127e-02          -0.057          -0.000           0.998       5.425e-02          0.1455
 322       1.597e-01       2.414e+00       1.363e-02          -0.077          -0.000           0.997       4.123e-02          0.0185
 323       6.848e-02       2.414e+00       6.383e-03          -0.091           0.000           0.996       2.577e-02         -0.1819
 324       1.602e-02       2.414e+00       1.571e-03          -0.098           0.000           0.995       8.764e-03         -0.6588
Strip 26
 325       1.465e+00       2.813e+00       3.508e-04           0.066           0.000           0.998       8.358e-03          0.0682
 326       1.433e+00       2.813e+00       2.388e-03           0.063           0.000           0.998       2.458e-02          0.1140
 327       1.361e+00       2.813e+00       6.763e-03           0.056           0.000           0.998       3.937e-02          0.1582
 328       1.252e+00       2.813e+00       1.261e-02           0.048           0.000           0.999       5.185e-02          0.1944
 329       1.113e+00       2.813e+00       1.878e-02           0.037           0.000           0.999       6.131e-02          0.2223
 330       9.526e-01       2.813e+00       2.415e-02           0.024           0.000           1.000       6.720e-02          0.2411
 331       7.793e-01       2.813e+00       2.778e-02           0.011           0.000           1.000       6.920e-02          0.2585
 332       6.034e-01       2.813e+00       2.901e-02          -0.006           0.000           1.000       6.718e-02          0.2719
 333       4.351e-01       2.813e+00       2.700e-02          -0.033           0.000           0.999       6.130e-02          0.2283
 334       2.843e-01       2.813e+00       2.127e-02          -0.057           0.000           0.998       5.188e-02          0.1416
 335       1.597e-01       2.813e+00       1.363e-02          -0.077           0.000           0.997       3.942e-02          0.0133
 336       6.848e-02       2.813e+00       6.383e-03          -0.091           0.000           0.996       2.464e-02         -0.1902
 337       1.602e-02       2.813e+00       1.571e-03          -0.098           0.000           0.995       8.380e-03         -0.6784
Strip 27
 338       1.465e+00       3.193e+00       3.508e-04           0.066           0.000           0.998       7.918e-03          0.0677
 339       1.433e+00       3.193e+00       2.388e-03           0.063           0.000           0.998       2.329e-02          0.1131
 340       1.361e+00       3.193e+00       6.763e-03           0.056           0.000           0.998       3.730e-02          0.1569
 341       1.252e+00       3.193e+00       1.261e-02           0.048           0.000           0.999       4.912e-02          0.1927
 342       1.113e+00       3.193e+00       1.878e-02           0.037           0.000           0.999       5.808e-02          0.2201
 343       9.526e-01       3.193e+00       2.415e-02           0.024           0.000           1.000       6.367e-02          0.2386
 344       7.793e-01       3.193e+00       2.778e-02           0.011           0.000           1.000       6.556e-02          0.2556
 345       6.034e-01       3.193e+00       2.901e-02          -0.006          -0.000           1.000       6.365e-02          0.2686
 346       4.351e-01       3.193e+00       2.700e-02          -0.033          -0.000           0.999       5.807e-02          0.2243
 347       2.843e-01       3.193e+00       2.127e-02          -0.057           0.000           0.998       4.915e-02          0.1368
 348       1.597e-01       3.193e+00       1.363e-02          -0.077           0.000           0.997       3.735e-02          0.0069
 349       6.848e-02       3.193e+00       6.383e-03          -0.091           0.000           0.996       2.334e-02         -0.2002
 350       1.602e-02       3.193e+00       1.571e-03          -0.098           0.000           0.995       7.939e-03         -0.7020
Strip 28
 351       1.465e+00       3.552e+00       3.508e-04           0.066           0.000           0.998       7.425e-03          0.0671
 352       1.433e+00       3.552e+00       2.388e-03           0.063           0.000           0.998       2.184e-02          0.1119
 353       1.361e+00       3.552e+00       6.763e-03           0.056           0.000           0.998       3.497e-02          0.1552
 354       1.252e+00       3.552e+00       1.261e-02           0.048           0.000           0.999       4.606e-02          0.1904
 355       1.113e+00       3.552e+00       1.878e-02           0.037           0.000           0.999       5.446e-02          0.2173
 356       9.526e-01       3.552e+00       2.415e-02           0.024           0.000           1.000       5.969e-02          0.2353
 357       7.793e-01       3.552e+00       2.778e-02           0.011           0.000           1.000       6.147e-02          0.2518
 358       6.034e-01       3.552e+00       2.901e-02          -0.006           0.000           1.000       5.968e-02          0.2644
 359       4.351e-01       3.552e+00       2.700e-02          -0.033           0.000           0.999       5.445e-02          0.2195
 360       2.843e-01       3.552e+00       2.127e-02          -0.057           0.000           0.998       4.608e-02          0.1311
 361       1.597e-01       3.552e+00       1.363e-02          -0.077           0.000           0.997       3.502e-02         -0.0006
 362       6.848e-02       3.552e+00       6.383e-03          -0.091           0.000           0.996       2.189e-02         -0.2120
 363       1.602e-02       3.552e+00       1.571e-03          -0.098           0.000           0.995       7.444e-03         -0.7297
Strip 29
 364       1.465e+00       3.886e+00       3.508e-04           0.066           0.000           0.998       6.880e-03          0.0662
 365       1.433e+00       3.886e+00       2.388e-03           0.063           0.000           0.998       2.024e-02          0.1103
 366       1.361e+00       3.886e+00       6.763e-03           0.056           0.000           0.998       3.241e-02          0.1529
 367       1.252e+00       3.886e+00       1.261e-02           0.048           0.000           0.999       4.268e-02          0.1874
 368       1.113e+00       3.886e+00       1.878e-02           0.037           0.000           0.999       5.046e-02          0.2137
 369       9.526e-01       3.886e+00       2.415e-02           0.024           0.000           1.000       5.532e-02          0.2311
 370       7.793e-01       3.886e+00       2.778e-02           0.011           0.000           1.000       5.696e-02          0.2471
 371       6.034e-01       3.886e+00       2.901e-02          -0.006          -0.000           1.000       5.530e-02          0.2592
 372       4.351e-01       3.886e+00       2.700e-02          -0.033          -0.000           0.999       5.046e-02          0.2137
 373       2.843e-01       3.886e+00       2.127e-02          -0.057          -0.000           0.998       4.270e-02          0.1244
 374       1.597e-01       3.886e+00       1.363e-02          -0.077          -0.000           0.997       3.245e-02         -0.0093
 375       6.848e-02       3.886e+00       6.383e-03          -0.091           0.000           0.996       2.028e-02         -0.2255
 376       1.602e-02       3.886e+00       1.571e-03          -0.098           0.000           0.995       6.898e-03         -0.7614
Strip 30
 377       1.465e+00       4.193e+00       3.508e-04           0.066          -0.000           0.998       6.288e-03          0.0650
 378       1.433e+00       4.193e+00       2.388e-03           0.063          -0.000           0.998       1.850e-02          0.1082
 379       1.361e+00       4.193e+00       6.763e-03           0.056           0.000           0.998       2.962e-02          0.1498
 380       1.252e+00       4.193e+00       1.261e-02           0.048           0.000           0.999       3.901e-02          0.1834
 381       1.113e+00       4.193e+00       1.878e-02           0.037          -0.000           0.999       4.612e-02          0.2089
 382       9.526e-01       4.193e+00       2.415e-02           0.024          -0.000           1.000       5.056e-02          0.2256
 383       7.793e-01       4.193e+00       2.778e-02           0.011          -0.000           1.000       5.206e-02          0.2411
 384       6.034e-01       4.193e+00       2.901e-02          -0.006           0.000           1.000       5.054e-02          0.2528
 385       4.351e-01       4.193e+00       2.700e-02          -0.033           0.000           0.999       4.612e-02          0.2069
 386       2.843e-01       4.193e+00       2.127e-02          -0.057           0.000           0.998       3.903e-02          0.1166
 387       1.597e-01       4.193e+00       1.363e-02          -0.077           0.000           0.997       2.966e-02         -0.0190
 388       6.848e-02       4.193e+00       6.383e-03          -0.091          -0.000           0.996       1.854e-02         -0.2405
 389       1.602e-02       4.193e+00       1.571e-03          -0.098           0.000           0.995       6.305e-03         -0.7963
Strip 31
 390       1.465e+00       4.472e+00       3.508e-04           0.066           0.000           0.998       5.654e-03          0.0634
 391       1.433e+00       4.472e+00       2.388e-03           0.063           0.000           0.998       1.663e-02          0.1054
 392       1.361e+00       4.472e+00       6.763e-03           0.056           0.000           0.998       2.663e-02          0.1456
 393       1.252e+00       4.472e+00       1.261e-02           0.048           0.000           0.999       3.507e-02          0.1780
 394       1.113e+00       4.472e+00       1.878e-02           0.037           0.000           0.999       4.147e-02          0.2023
 395       9.526e-01       4.472e+00       2.415e-02           0.024           0.000           1.000       4.546e-02          0.2182
 396       7.793e-01       4.472e+00       2.778e-02           0.011           0.000           1.000       4.681e-02          0.2334
 397       6.034e-01       4.472e+00       2.901e-02          -0.006           0.000           1.000       4.544e-02          0.2449
 398       4.351e-01       4.472e+00       2.700e-02          -0.033           0.000           0.999       4.146e-02          0.1988
 399       2.843e-01       4.472e+00       2.127e-02          -0.057          -0.000           0.998       3.509e-02          0.1080
 400       1.597e-01       4.472e+00       1.363e-02          -0.077          -0.000           0.997       2.667e-02         -0.0295
 401       6.848e-02       4.472e+00       6.383e-03          -0.091           0.000           0.996       1.667e-02         -0.2562
 402       1.602e-02       4.472e+00       1.571e-03          -0.098           0.000           0.995       5.669e-03         -0.8326
Strip 32
 403       1.465e+00       4.721e+00       3.508e-04           0.066           0.000           0.998       4.980e-03          0.0611
 404       1.433e+00       4.721e+00       2.388e-03           0.063           0.000           0.998       1.465e-02          0.1015
 405       1.361e+00       4.721e+00       6.763e-03           0.056           0.000           0.998       2.346e-02          0.1399
 406       1.252e+00       4.721e+00       1.261e-02           0.048           0.000           0.999       3.090e-02          0.1703
 407       1.113e+00       4.721e+00       1.878e-02           0.037           0.000           0.999       3.653e-02          0.1931
 408       9.526e-01       4.721e+00       2.415e-02           0.024           0.000           1.000       4.004e-02          0.2081
 409       7.793e-01       4.721e+00       2.778e-02           0.011           0.000           1.000       4.123e-02          0.2231
 410       6.034e-01       4.721e+00       2.901e-02          -0.006           0.000           1.000       4.003e-02          0.2350
 411       4.351e-01       4.721e+00       2.700e-02          -0.033           0.000           0.999       3.653e-02          0.1895
 412       2.843e-01       4.721e+00       2.127e-02          -0.057           0.000           0.998       3.091e-02          0.0988
 413       1.597e-01       4.721e+00       1.363e-02          -0.077           0.000           0.997       2.349e-02         -0.0399
 414       6.848e-02       4.721e+00       6.383e-03          -0.091           0.000           0.996       1.468e-02         -0.2713
 415       1.602e-02       4.721e+00       1.571e-03          -0.098           0.000           0.995       4.994e-03         -0.8671
Strip 33
 416       1.465e+00       4.937e+00       3.508e-04           0.066           0.000           0.998       4.273e-03          0.0581
 417       1.433e+00       4.937e+00       2.388e-03           0.063           0.000           0.998       1.257e-02          0.0961
 418       1.361e+00       4.937e+00       6.763e-03           0.056           0.000           0.998       2.013e-02          0.1319
 419       1.252e+00       4.937e+00       1.261e-02           0.048           0.000           0.999       2.651e-02          0.1598
 420       1.113e+00       4.937e+00       1.878e-02           0.037           0.000           0.999       3.134e-02          0.1805
 421       9.526e-01       4.937e+00       2.415e-02           0.024           0.000           1.000       3.436e-02          0.1942
 422       7.793e-01       4.937e+00       2.778e-02           0.011           0.000           1.000       3.538e-02          0.2091
 423       6.034e-01       4.937e+00       2.901e-02          -0.006           0.000           1.000       3.435e-02          0.2222
 424       4.351e-01       4.937e+00       2.700e-02          -0.033           0.000           0.999       3.134e-02          0.1788
 425       2.843e-01       4.937e+00       2.127e-02          -0.057          -0.000           0.998       2.652e-02          0.0897
 426       1.597e-01       4.937e+00       1.363e-02          -0.077          -0.000           0.997       2.016e-02         -0.0488
 427       6.848e-02       4.937e+00       6.383e-03          -0.091          -0.000           0.996       1.260e-02         -0.2834
 428       1.602e-02       4.937e+00       1.571e-03          -0.098          -0.000           0.995       4.284e-03         -0.8942
Strip 34
 429       1.465e+00       5.119e+00       3.508e-04           0.066           0.000           0.998       3.537e-03          0.0541
 430       1.433e+00       5.119e+00       2.388e-03           0.063           0.000           0.998       1.040e-02          0.0890
 431       1.361e+00       5.119e+00       6.763e-03           0.056           0.000           0.998       1.666e-02          0.1211
 432       1.252e+00       5.119e+00       1.261e-02           0.048           0.000           0.999       2.194e-02          0.1454
 433       1.113e+00       5.119e+00       1.878e-02           0.037           0.000           0.999       2.594e-02          0.1631
 434       9.526e-01       5.119e+00       2.415e-02           0.024           0.000           1.000       2.844e-02          0.1751
 435       7.793e-01       5.119e+00       2.778e-02           0.011           0.000           1.000       2.928e-02          0.1899
 436       6.034e-01       5.119e+00       2.901e-02          -0.006           0.000           1.000       2.843e-02          0.2052
 437       4.351e-01       5.119e+00       2.700e-02          -0.033           0.000           0.999       2.594e-02          0.1659
 438       2.843e-01       5.119e+00       2.127e-02          -0.057           0.000           0.998       2.195e-02          0.0814
 439       1.597e-01       5.119e+00       1.363e-02          -0.077           0.000           0.997       1.668e-02         -0.0542
 440       6.848e-02       5.119e+00       6.383e-03          -0.091           0.000           0.996       1.043e-02         -0.2888
 441       1.602e-02       5.119e+00       1.571e-03          -0.098           0.000           0.995       3.546e-03         -0.9056
Strip 35
 442       1.465e+00       5.267e+00       3.508e-04           0.066           0.000           0.998       2.776e-03          0.0489
 443       1.433e+00       5.267e+00       2.388e-03           0.063           0.000           0.998       8.166e-03          0.0796
 444       1.361e+00       5.267e+00       6.763e-03           0.056           0.000           0.998       1.308e-02          0.1067
 445       1.252e+00       5.267e+00       1.261e-02           0.048           0.000           0.999       1.722e-02          0.1264
 446       1.113e+00       5.267e+00       1.878e-02           0.037           0.000           0.999       2.036e-02          0.1404
 447       9.526e-01       5.267e+00       2.415e-02           0.024           0.000           1.000       2.232e-02          0.1500
 448       7.793e-01       5.267e+00       2.778e-02           0.011           0.000           1.000       2.298e-02          0.1643
 449       6.034e-01       5.267e+00       2.901e-02          -0.006           0.000           1.000       2.232e-02          0.1819
 450       4.351e-01       5.267e+00       2.700e-02          -0.033           0.000           0.999       2.036e-02          0.1494
 451       2.843e-01       5.267e+00       2.127e-02          -0.057           0.000           0.998       1.723e-02          0.0745
 452       1.597e-01       5.267e+00       1.363e-02          -0.077           0.000           0.997       1.309e-02         -0.0527
 453       6.848e-02       5.267e+00       6.383e-03          -0.091           0.000           0.996       8.183e-03         -0.2819
 454       1.602e-02       5.267e+00       1.571e-03          -0.098           0.000           0.995       2.784e-03         -0.8891
Strip 36
 455       1.465e+00       5.378e+00       3.508e-04           0.066           0.000           0.998       1.997e-03          0.0423
 456       1.433e+00       5.378e+00       2.388e-03           0.063           0.000           0.998       5.873e-03          0.0673
 457       1.361e+00       5.378e+00       6.763e-03           0.056           0.000           0.998       9.405e-03          0.0881
 458       1.252e+00       5.378e+00       1.261e-02           0.048           0.000           0.999       1.239e-02          0.1022
 459       1.113e+00       5.378e+00       1.878e-02           0.037           0.000           0.999       1.465e-02          0.1122
 460       9.526e-01       5.378e+00       2.415e-02           0.024           0.000           1.000       1.605e-02          0.1192
 461       7.793e-01       5.378e+00       2.778e-02           0.011           0.000           1.000       1.653e-02          0.1317
 462       6.034e-01       5.378e+00       2.901e-02          -0.006           0.000           1.000       1.605e-02          0.1502
 463       4.351e-01       5.378e+00       2.700e-02          -0.033           0.000           0.999       1.464e-02          0.1260
 464       2.843e-01       5.378e+00       2.127e-02          -0.057           0.000           0.998       1.239e-02          0.0670
 465       1.597e-01       5.378e+00       1.363e-02          -0.077           0.000           0.997       9.417e-03         -0.0411
 466       6.848e-02       5.378e+00       6.383e-03          -0.091           0.000           0.996       5.886e-03         -0.2543
 467       1.602e-02       5.378e+00       1.571e-03          -0.098           0.000           0.995       2.002e-03         -0.8285
Strip 37
 468       1.465e+00       5.453e+00       3.508e-04           0.066           0.000           0.998       1.203e-03          0.0338
 469       1.433e+00       5.453e+00       2.388e-03           0.063           0.000           0.998       3.540e-03          0.0512
 470       1.361e+00       5.453e+00       6.763e-03           0.056           0.000           0.998       5.669e-03          0.0645
 471       1.252e+00       5.453e+00       1.261e-02           0.048           0.000           0.999       7.466e-03          0.0734
 472       1.113e+00       5.453e+00       1.878e-02           0.037           0.000           0.999       8.828e-03          0.0798
 473       9.526e-01       5.453e+00       2.415e-02           0.024           0.000           1.000       9.676e-03          0.0843
 474       7.793e-01       5.453e+00       2.778e-02           0.011           0.000           1.000       9.964e-03          0.0936
 475       6.034e-01       5.453e+00       2.901e-02          -0.006           0.000           1.000       9.674e-03          0.1095
 476       4.351e-01       5.453e+00       2.700e-02          -0.033           0.000           0.999       8.826e-03          0.0936
 477       2.843e-01       5.453e+00       2.127e-02          -0.057           0.000           0.998       7.470e-03          0.0539
 478       1.597e-01       5.453e+00       1.363e-02          -0.077           0.000           0.997       5.676e-03         -0.0214
 479       6.848e-02       5.453e+00       6.383e-03          -0.091           0.000           0.996       3.547e-03         -0.1941
 480       1.602e-02       5.453e+00       1.571e-03          -0.098           0.000           0.995       1.207e-03         -0.7030
Strip 38
 481       1.465e+00       5.491e+00       3.508e-04           0.066           0.000           0.998       4.021e-04          0.0227
 482       1.433e+00       5.491e+00       2.388e-03           0.063           0.000           0.998       1.183e-03          0.0312
 483       1.361e+00       5.491e+00       6.763e-03           0.056           0.000           0.998       1.894e-03          0.0383
 484       1.252e+00       5.491e+00       1.261e-02           0.048           0.000           0.999       2.494e-03          0.0431
 485       1.113e+00       5.491e+00       1.878e-02           0.037           0.000           0.999       2.949e-03          0.0468
 486       9.526e-01       5.491e+00       2.415e-02           0.024           0.000           1.000       3.233e-03          0.0493
 487       7.793e-01       5.491e+00       2.778e-02           0.011           0.000           1.000       3.329e-03          0.0548
 488       6.034e-01       5.491e+00       2.901e-02          -0.006           0.000           1.000       3.232e-03          0.0649
 489       4.351e-01       5.491e+00       2.700e-02          -0.033           0.000           0.999       2.949e-03          0.0559
 490       2.843e-01       5.491e+00       2.127e-02          -0.057           0.000           0.998       2.496e-03          0.0334
 491       1.597e-01       5.491e+00       1.363e-02          -0.077           0.000           0.997       1.896e-03         -0.0084
 492       6.848e-02       5.491e+00       6.383e-03          -0.091           0.000           0.996       1.185e-03         -0.1058
 493       1.602e-02       5.491e+00       1.571e-03          -0.098           0.000           0.995       4.031e-04         -0.4846










