xflr5 v6.47

Flying_wing_3
T1-55.0 m/s-VLM2-Inviscid
QInf  =   55.000000 m/s
Alpha =    0.000000
Beta  =    0.000°
Phi   =    0.000°
Ctrl  =    0.000
CL    =    0.156081
Cy    =   -0.000000
Cd    =    0.001093     ICd   =    0.001093     PCd   =    0.000000
Cl   = 6.09548e-18
Cm   =  -0.0209304
ICn   =   -0.000000     PCn   =   -0.000000 
XCP   =    1.316795     YCP   =    0.000000     ZCP   =    0.025481  
XNP   =    0.000000
Bending = 5478.964039

Main Wing
  y-span        Chord      Ai         Cl        PCd          ICd        CmGeom    CmAirf@chord/4    XTrtop    XTrBot      XCP       BM
   -5.4906     1.4700    -1.416    0.031428    0.000000    0.000775   -0.018653   -0.013403     0.0000    0.0000    0.6775    0.0000
   -5.4531     1.4700    -1.323    0.053428    0.000000    0.001233   -0.031202   -0.022507     0.0000    0.0000    0.6714    0.0604
   -5.3783     1.4700    -1.199    0.075140    0.000000    0.001573   -0.042376   -0.030840     0.0000    0.0000    0.6605    0.7931
   -5.2668     1.4700    -1.065    0.094447    0.000000    0.001756   -0.050761   -0.037563     0.0000    0.0000    0.6477    4.0169
   -5.1194     1.4700    -0.932    0.110913    0.000000    0.001805   -0.056108   -0.042631     0.0000    0.0000    0.6344   13.2071
   -4.9369     1.4700    -0.809    0.124564    0.000000    0.001758   -0.058567   -0.046242     0.0000    0.0000    0.6212   33.6940
   -4.7208     1.4700    -0.700    0.135670    0.000000    0.001657   -0.058492   -0.048696     0.0000    0.0000    0.6089   72.6263
   -4.4723     1.4700    -0.608    0.144609    0.000000    0.001533   -0.056311   -0.050312     0.0000    0.0000    0.5979   138.7501
   -4.1934     1.4700    -0.532    0.151760    0.000000    0.001409   -0.052424   -0.051365     0.0000    0.0000    0.5885   242.0614
   -3.8858     1.4700    -0.471    0.157447    0.000000    0.001295   -0.047163   -0.052055     0.0000    0.0000    0.5806   393.3782
   -3.5516     1.4700    -0.422    0.161921    0.000000    0.001193   -0.040794   -0.052517     0.0000    0.0000    0.5743   603.8641
   -3.1932     1.4700    -0.383    0.165371    0.000000    0.001106   -0.033531   -0.052835     0.0000    0.0000    0.5695   884.5243
   -2.8130     1.4700    -0.352    0.167932    0.000000    0.001031   -0.025560   -0.053060     0.0000    0.0000    0.5660   1245.6949
   -2.4135     1.4700    -0.326    0.169695    0.000000    0.000967   -0.017052   -0.053225     0.0000    0.0000    0.5637   1696.5438
   -1.9976     1.4700    -0.306    0.170705    0.000000    0.000910   -0.008183   -0.053353     0.0000    0.0000    0.5625   2244.5974
   -1.5680     1.4700    -0.287    0.170957    0.000000    0.000857    0.000851   -0.053469     0.0000    0.0000    0.5628   2895.3064
   -1.1277     1.4700    -0.269    0.170384    0.000000    0.000799    0.009800   -0.053617     0.0000    0.0000    0.5647   3651.6589
   -0.6797     1.4700    -0.241    0.168844    0.000000    0.000709    0.018289   -0.053910     0.0000    0.0000    0.5693   4513.8429
   -0.2271     1.4700    -0.168    0.166229    0.000000    0.000487    0.025650   -0.054737     0.0000    0.0000    0.5793   5478.9640
    0.2271     1.4700    -0.168    0.166229    0.000000    0.000487    0.025650   -0.054737     0.0000    0.0000    0.5793   5478.9640
    0.6797     1.4700    -0.241    0.168844    0.000000    0.000709    0.018289   -0.053910     0.0000    0.0000    0.5693   4513.8429
    1.1277     1.4700    -0.269    0.170384    0.000000    0.000799    0.009800   -0.053617     0.0000    0.0000    0.5647   3651.6589
    1.5680     1.4700    -0.287    0.170957    0.000000    0.000857    0.000851   -0.053469     0.0000    0.0000    0.5628   2895.3064
    1.9976     1.4700    -0.306    0.170705    0.000000    0.000910   -0.008183   -0.053353     0.0000    0.0000    0.5625   2244.5974
    2.4135     1.4700    -0.326    0.169695    0.000000    0.000967   -0.017052   -0.053225     0.0000    0.0000    0.5637   1696.5438
    2.8130     1.4700    -0.352    0.167932    0.000000    0.001031   -0.025560   -0.053060     0.0000    0.0000    0.5660   1245.6949
    3.1932     1.4700    -0.383    0.165371    0.000000    0.001106   -0.033531   -0.052835     0.0000    0.0000    0.5695   884.5243
    3.5516     1.4700    -0.422    0.161921    0.000000    0.001193   -0.040794   -0.052517     0.0000    0.0000    0.5743   603.8641
    3.8858     1.4700    -0.471    0.157447    0.000000    0.001295   -0.047163   -0.052055     0.0000    0.0000    0.5806   393.3782
    4.1934     1.4700    -0.532    0.151760    0.000000    0.001409   -0.052424   -0.051365     0.0000    0.0000    0.5885   242.0614
    4.4723     1.4700    -0.608    0.144609    0.000000    0.001533   -0.056311   -0.050312     0.0000    0.0000    0.5979   138.7501
    4.7208     1.4700    -0.700    0.135670    0.000000    0.001657   -0.058492   -0.048696     0.0000    0.0000    0.6089   72.6263
    4.9369     1.4700    -0.809    0.124564    0.000000    0.001758   -0.058567   -0.046242     0.0000    0.0000    0.6212   33.6940
    5.1194     1.4700    -0.932    0.110913    0.000000    0.001805   -0.056108   -0.042631     0.0000    0.0000    0.6344   13.2071
    5.2668     1.4700    -1.065    0.094447    0.000000    0.001756   -0.050761   -0.037563     0.0000    0.0000    0.6477    4.0169
    5.3783     1.4700    -1.199    0.075140    0.000000    0.001573   -0.042376   -0.030840     0.0000    0.0000    0.6605    0.7931
    5.4531     1.4700    -1.323    0.053428    0.000000    0.001233   -0.031202   -0.022507     0.0000    0.0000    0.6714    0.0604
    5.4906     1.4700    -1.416    0.031428    0.000000    0.000775   -0.018653   -0.013403     0.0000    0.0000    0.6775    0.0000


Main Wing Cp Coefficients
 Panel     CtrlPt.x        CtrlPt.y        CtrlPt.z       Nx      Ny       Nz        Area       Cp
Main WingCp Coefficients
Strip 1
   0       2.463e+00      -5.491e+00       3.508e-04           0.066           0.012           0.998       4.021e-04          0.0207
   1       2.431e+00      -5.491e+00       2.388e-03           0.063           0.011           0.998       1.183e-03          0.0288
   2       2.359e+00      -5.491e+00       6.763e-03           0.056           0.010           0.998       1.894e-03          0.0360
   3       2.250e+00      -5.491e+00       1.261e-02           0.048           0.009           0.999       2.494e-03          0.0413
   4       2.112e+00      -5.491e+00       1.878e-02           0.037           0.007           0.999       2.949e-03          0.0454
   5       1.951e+00      -5.491e+00       2.415e-02           0.024           0.004           1.000       3.233e-03          0.0486
   6       1.778e+00      -5.491e+00       2.778e-02           0.011           0.002           1.000       3.329e-03          0.0549
   7       1.602e+00      -5.491e+00       2.901e-02          -0.006          -0.001           1.000       3.232e-03          0.0665
   8       1.433e+00      -5.491e+00       2.700e-02          -0.033          -0.006           0.999       2.949e-03          0.0597
   9       1.283e+00      -5.491e+00       2.127e-02          -0.057          -0.010           0.998       2.496e-03          0.0396
  10       1.158e+00      -5.491e+00       1.363e-02          -0.077          -0.014           0.997       1.897e-03          0.0005
  11       1.067e+00      -5.491e+00       6.383e-03          -0.091          -0.016           0.996       1.185e-03         -0.0946
  12       1.014e+00      -5.491e+00       1.571e-03          -0.098          -0.018           0.995       4.032e-04         -0.4918
Strip 2
  13       2.456e+00      -5.453e+00       3.508e-04           0.066           0.012           0.998       1.204e-03          0.0306
  14       2.424e+00      -5.453e+00       2.388e-03           0.063           0.011           0.998       3.540e-03          0.0472
  15       2.352e+00      -5.453e+00       6.763e-03           0.056           0.010           0.998       5.669e-03          0.0606
  16       2.243e+00      -5.453e+00       1.261e-02           0.048           0.009           0.999       7.466e-03          0.0702
  17       2.105e+00      -5.453e+00       1.878e-02           0.037           0.007           0.999       8.828e-03          0.0776
  18       1.944e+00      -5.453e+00       2.415e-02           0.024           0.004           1.000       9.676e-03          0.0831
  19       1.771e+00      -5.453e+00       2.778e-02           0.011           0.002           1.000       9.964e-03          0.0939
  20       1.595e+00      -5.453e+00       2.901e-02          -0.006          -0.001           1.000       9.674e-03          0.1123
  21       1.427e+00      -5.453e+00       2.700e-02          -0.033          -0.006           0.999       8.827e-03          0.1000
  22       1.276e+00      -5.453e+00       2.127e-02          -0.057          -0.010           0.998       7.470e-03          0.0641
  23       1.151e+00      -5.453e+00       1.363e-02          -0.077          -0.014           0.997       5.677e-03         -0.0078
  24       1.060e+00      -5.453e+00       6.383e-03          -0.091          -0.016           0.996       3.548e-03         -0.1818
  25       1.007e+00      -5.453e+00       1.571e-03          -0.098          -0.018           0.995       1.207e-03         -0.6886
Strip 3
  26       2.443e+00      -5.378e+00       3.508e-04           0.066           0.012           0.998       1.997e-03          0.0392
  27       2.411e+00      -5.378e+00       2.388e-03           0.063           0.011           0.998       5.873e-03          0.0627
  28       2.339e+00      -5.378e+00       6.763e-03           0.056           0.010           0.998       9.405e-03          0.0831
  29       2.230e+00      -5.378e+00       1.261e-02           0.048           0.009           0.999       1.239e-02          0.0979
  30       2.091e+00      -5.378e+00       1.878e-02           0.037           0.007           0.999       1.465e-02          0.1092
  31       1.931e+00      -5.378e+00       2.415e-02           0.024           0.004           1.000       1.605e-02          0.1179
  32       1.757e+00      -5.378e+00       2.778e-02           0.011           0.002           1.000       1.653e-02          0.1324
  33       1.581e+00      -5.378e+00       2.901e-02          -0.006          -0.001           1.000       1.605e-02          0.1541
  34       1.413e+00      -5.378e+00       2.700e-02          -0.033          -0.006           0.999       1.464e-02          0.1343
  35       1.262e+00      -5.378e+00       2.127e-02          -0.057          -0.010           0.998       1.239e-02          0.0793
  36       1.138e+00      -5.378e+00       1.363e-02          -0.077          -0.014           0.997       9.418e-03         -0.0265
  37       1.046e+00      -5.378e+00       6.383e-03          -0.091          -0.016           0.996       5.886e-03         -0.2367
  38       9.939e-01      -5.378e+00       1.571e-03          -0.098          -0.018           0.995       2.002e-03         -0.7893
Strip 4
  39       2.422e+00      -5.267e+00       3.508e-04           0.066           0.012           0.998       2.776e-03          0.0461
  40       2.391e+00      -5.267e+00       2.388e-03           0.063           0.011           0.998       8.166e-03          0.0753
  41       2.318e+00      -5.267e+00       6.763e-03           0.056           0.010           0.998       1.308e-02          0.1017
  42       2.210e+00      -5.267e+00       1.261e-02           0.048           0.009           0.999       1.722e-02          0.1218
  43       2.071e+00      -5.267e+00       1.878e-02           0.037           0.007           0.999       2.036e-02          0.1371
  44       1.910e+00      -5.267e+00       2.415e-02           0.024           0.004           1.000       2.232e-02          0.1488
  45       1.737e+00      -5.267e+00       2.778e-02           0.011           0.002           1.000       2.298e-02          0.1656
  46       1.561e+00      -5.267e+00       2.901e-02          -0.006          -0.001           1.000       2.232e-02          0.1865
  47       1.393e+00      -5.267e+00       2.700e-02          -0.033          -0.006           0.999       2.036e-02          0.1579
  48       1.242e+00      -5.267e+00       2.127e-02          -0.057          -0.010           0.998       1.723e-02          0.0865
  49       1.117e+00      -5.267e+00       1.363e-02          -0.077          -0.014           0.997       1.310e-02         -0.0375
  50       1.026e+00      -5.267e+00       6.383e-03          -0.091          -0.016           0.996       8.185e-03         -0.2582
  51       9.736e-01      -5.267e+00       1.571e-03          -0.098          -0.018           0.995       2.784e-03         -0.8320
Strip 5
  52       2.395e+00      -5.119e+00       3.508e-04           0.066           0.012           0.998       3.537e-03          0.0518
  53       2.364e+00      -5.119e+00       2.388e-03           0.063           0.011           0.998       1.040e-02          0.0853
  54       2.291e+00      -5.119e+00       6.763e-03           0.056           0.010           0.998       1.666e-02          0.1166
  55       2.183e+00      -5.119e+00       1.261e-02           0.048           0.009           0.999       2.194e-02          0.1412
  56       2.044e+00      -5.119e+00       1.878e-02           0.037           0.007           0.999       2.594e-02          0.1601
  57       1.883e+00      -5.119e+00       2.415e-02           0.024           0.004           1.000       2.844e-02          0.1741
  58       1.710e+00      -5.119e+00       2.778e-02           0.011           0.002           1.000       2.928e-02          0.1915
  59       1.534e+00      -5.119e+00       2.901e-02          -0.006          -0.001           1.000       2.843e-02          0.2096
  60       1.366e+00      -5.119e+00       2.700e-02          -0.033          -0.006           0.999       2.594e-02          0.1736
  61       1.215e+00      -5.119e+00       2.127e-02          -0.057          -0.010           0.998       2.195e-02          0.0925
  62       1.090e+00      -5.119e+00       1.363e-02          -0.077          -0.014           0.997       1.668e-02         -0.0382
  63       9.993e-01      -5.119e+00       6.383e-03          -0.091          -0.016           0.996       1.043e-02         -0.2614
  64       9.468e-01      -5.119e+00       1.571e-03          -0.098          -0.018           0.995       3.547e-03         -0.8380
Strip 6
  65       2.362e+00      -4.937e+00       3.508e-04           0.066           0.012           0.998       4.274e-03          0.0562
  66       2.331e+00      -4.937e+00       2.388e-03           0.063           0.011           0.998       1.257e-02          0.0931
  67       2.258e+00      -4.937e+00       6.763e-03           0.056           0.010           0.998       2.013e-02          0.1282
  68       2.150e+00      -4.937e+00       1.261e-02           0.048           0.009           0.999       2.651e-02          0.1562
  69       2.011e+00      -4.937e+00       1.878e-02           0.037           0.007           0.999       3.135e-02          0.1779
  70       1.850e+00      -4.937e+00       2.415e-02           0.024           0.004           1.000       3.436e-02          0.1934
  71       1.677e+00      -4.937e+00       2.778e-02           0.011           0.002           1.000       3.538e-02          0.2104
  72       1.501e+00      -4.937e+00       2.901e-02          -0.006          -0.001           1.000       3.435e-02          0.2258
  73       1.333e+00      -4.937e+00       2.700e-02          -0.033          -0.006           0.999       3.134e-02          0.1852
  74       1.182e+00      -4.937e+00       2.127e-02          -0.057          -0.010           0.998       2.652e-02          0.0998
  75       1.057e+00      -4.937e+00       1.363e-02          -0.077          -0.014           0.997       2.016e-02         -0.0328
  76       9.661e-01      -4.937e+00       6.383e-03          -0.091          -0.016           0.996       1.260e-02         -0.2546
  77       9.136e-01      -4.937e+00       1.571e-03          -0.098          -0.018           0.995       4.285e-03         -0.8227
Strip 7
  78       2.323e+00      -4.721e+00       3.508e-04           0.066           0.012           0.998       4.981e-03          0.0596
  79       2.291e+00      -4.721e+00       2.388e-03           0.063           0.011           0.998       1.465e-02          0.0991
  80       2.219e+00      -4.721e+00       6.763e-03           0.056           0.010           0.998       2.346e-02          0.1369
  81       2.110e+00      -4.721e+00       1.261e-02           0.048           0.009           0.999       3.090e-02          0.1674
  82       1.972e+00      -4.721e+00       1.878e-02           0.037           0.007           0.999       3.653e-02          0.1909
  83       1.811e+00      -4.721e+00       2.415e-02           0.024           0.004           1.000       4.004e-02          0.2073
  84       1.638e+00      -4.721e+00       2.778e-02           0.011           0.002           1.000       4.123e-02          0.2238
  85       1.462e+00      -4.721e+00       2.901e-02          -0.006          -0.001           1.000       4.003e-02          0.2375
  86       1.293e+00      -4.721e+00       2.700e-02          -0.033          -0.006           0.999       3.653e-02          0.1947
  87       1.143e+00      -4.721e+00       2.127e-02          -0.057          -0.010           0.998       3.091e-02          0.1078
  88       1.018e+00      -4.721e+00       1.363e-02          -0.077          -0.014           0.997       2.349e-02         -0.0246
  89       9.268e-01      -4.721e+00       6.383e-03          -0.091          -0.016           0.996       1.468e-02         -0.2431
  90       8.743e-01      -4.721e+00       1.571e-03          -0.098          -0.018           0.995       4.994e-03         -0.7966
Strip 8
  91       2.278e+00      -4.472e+00       3.508e-04           0.066           0.012           0.998       5.654e-03          0.0621
  92       2.246e+00      -4.472e+00       2.388e-03           0.063           0.011           0.998       1.663e-02          0.1034
  93       2.174e+00      -4.472e+00       6.763e-03           0.056           0.010           0.998       2.663e-02          0.1432
  94       2.065e+00      -4.472e+00       1.261e-02           0.048           0.009           0.999       3.507e-02          0.1754
  95       1.926e+00      -4.472e+00       1.878e-02           0.037           0.007           0.999       4.147e-02          0.2002
  96       1.766e+00      -4.472e+00       2.415e-02           0.024           0.004           1.000       4.546e-02          0.2171
  97       1.592e+00      -4.472e+00       2.778e-02           0.011           0.002           1.000       4.681e-02          0.2335
  98       1.417e+00      -4.472e+00       2.901e-02          -0.006          -0.001           1.000       4.544e-02          0.2464
  99       1.248e+00      -4.472e+00       2.700e-02          -0.033          -0.006           0.999       4.146e-02          0.2029
 100       1.097e+00      -4.472e+00       2.127e-02          -0.057          -0.010           0.998       3.509e-02          0.1158
 101       9.728e-01      -4.472e+00       1.363e-02          -0.077          -0.014           0.997       2.667e-02         -0.0156
 102       8.816e-01      -4.472e+00       6.383e-03          -0.091          -0.016           0.996       1.667e-02         -0.2300
 103       8.292e-01      -4.472e+00       1.571e-03          -0.098          -0.018           0.995       5.669e-03         -0.7666
Strip 9
 104       2.227e+00      -4.193e+00       3.508e-04           0.066           0.012           0.998       6.289e-03          0.0639
 105       2.195e+00      -4.193e+00       2.388e-03           0.063           0.011           0.998       1.850e-02          0.1065
 106       2.123e+00      -4.193e+00       6.763e-03           0.056           0.010           0.998       2.962e-02          0.1476
 107       2.014e+00      -4.193e+00       1.261e-02           0.048           0.009           0.999       3.901e-02          0.1811
 108       1.876e+00      -4.193e+00       1.878e-02           0.037           0.007           0.999       4.613e-02          0.2068
 109       1.715e+00      -4.193e+00       2.415e-02           0.024           0.004           1.000       5.056e-02          0.2242
 110       1.542e+00      -4.193e+00       2.778e-02           0.011           0.002           1.000       5.206e-02          0.2406
 111       1.366e+00      -4.193e+00       2.901e-02          -0.006          -0.001           1.000       5.054e-02          0.2534
 112       1.198e+00      -4.193e+00       2.700e-02          -0.033          -0.006           0.999       4.612e-02          0.2097
 113       1.047e+00      -4.193e+00       2.127e-02          -0.057          -0.010           0.998       3.903e-02          0.1230
 114       9.221e-01      -4.193e+00       1.363e-02          -0.077          -0.014           0.997       2.966e-02         -0.0069
 115       8.309e-01      -4.193e+00       6.383e-03          -0.091          -0.016           0.996       1.854e-02         -0.2171
 116       7.785e-01      -4.193e+00       1.571e-03          -0.098          -0.018           0.995       6.306e-03         -0.7368
Strip 10
 117       2.171e+00      -3.886e+00       3.508e-04           0.066           0.012           0.998       6.880e-03          0.0651
 118       2.139e+00      -3.886e+00       2.388e-03           0.063           0.011           0.998       2.024e-02          0.1087
 119       2.067e+00      -3.886e+00       6.763e-03           0.056           0.010           0.998       3.241e-02          0.1508
 120       1.959e+00      -3.886e+00       1.261e-02           0.048           0.009           0.999       4.268e-02          0.1851
 121       1.820e+00      -3.886e+00       1.878e-02           0.037           0.007           0.999       5.047e-02          0.2115
 122       1.659e+00      -3.886e+00       2.415e-02           0.024           0.004           1.000       5.532e-02          0.2293
 123       1.486e+00      -3.886e+00       2.778e-02           0.011           0.002           1.000       5.696e-02          0.2460
 124       1.310e+00      -3.886e+00       2.901e-02          -0.006          -0.001           1.000       5.530e-02          0.2589
 125       1.142e+00      -3.886e+00       2.700e-02          -0.033          -0.006           0.999       5.046e-02          0.2154
 126       9.908e-01      -3.886e+00       2.127e-02          -0.057          -0.010           0.998       4.270e-02          0.1293
 127       8.662e-01      -3.886e+00       1.363e-02          -0.077          -0.014           0.997       3.245e-02          0.0008
 128       7.750e-01      -3.886e+00       6.383e-03          -0.091          -0.016           0.996       2.028e-02         -0.2054
 129       7.225e-01      -3.886e+00       1.571e-03          -0.098          -0.018           0.995       6.899e-03         -0.7096
Strip 11
 130       2.110e+00      -3.552e+00       3.508e-04           0.066           0.012           0.998       7.425e-03          0.0661
 131       2.079e+00      -3.552e+00       2.388e-03           0.063           0.011           0.998       2.184e-02          0.1102
 132       2.006e+00      -3.552e+00       6.763e-03           0.056           0.010           0.998       3.497e-02          0.1530
 133       1.898e+00      -3.552e+00       1.261e-02           0.048           0.009           0.999       4.606e-02          0.1880
 134       1.759e+00      -3.552e+00       1.878e-02           0.037           0.007           0.999       5.446e-02          0.2149
 135       1.598e+00      -3.552e+00       2.415e-02           0.024           0.004           1.000       5.970e-02          0.2331
 136       1.425e+00      -3.552e+00       2.778e-02           0.011           0.002           1.000       6.147e-02          0.2500
 137       1.249e+00      -3.552e+00       2.901e-02          -0.006          -0.001           1.000       5.968e-02          0.2631
 138       1.081e+00      -3.552e+00       2.700e-02          -0.033          -0.006           0.999       5.445e-02          0.2201
 139       9.301e-01      -3.552e+00       2.127e-02          -0.057          -0.010           0.998       4.608e-02          0.1345
 140       8.054e-01      -3.552e+00       1.363e-02          -0.077          -0.014           0.997       3.502e-02          0.0074
 141       7.142e-01      -3.552e+00       6.383e-03          -0.091          -0.016           0.996       2.189e-02         -0.1954
 142       6.618e-01      -3.552e+00       1.571e-03          -0.098          -0.018           0.995       7.445e-03         -0.6863
Strip 12
 143       2.045e+00      -3.193e+00       3.508e-04           0.066           0.012           0.998       7.919e-03          0.0667
 144       2.014e+00      -3.193e+00       2.388e-03           0.063           0.011           0.998       2.329e-02          0.1114
 145       1.941e+00      -3.193e+00       6.763e-03           0.056           0.010           0.998       3.730e-02          0.1546
 146       1.833e+00      -3.193e+00       1.261e-02           0.048           0.009           0.999       4.912e-02          0.1901
 147       1.694e+00      -3.193e+00       1.878e-02           0.037           0.007           0.999       5.808e-02          0.2173
 148       1.533e+00      -3.193e+00       2.415e-02           0.024           0.004           1.000       6.367e-02          0.2359
 149       1.360e+00      -3.193e+00       2.778e-02           0.011           0.002           1.000       6.556e-02          0.2531
 150       1.184e+00      -3.193e+00       2.901e-02          -0.006          -0.001           1.000       6.365e-02          0.2664
 151       1.016e+00      -3.193e+00       2.700e-02          -0.033          -0.006           0.999       5.808e-02          0.2237
 152       8.649e-01      -3.193e+00       2.127e-02          -0.057          -0.010           0.998       4.915e-02          0.1387
 153       7.403e-01      -3.193e+00       1.363e-02          -0.077          -0.014           0.997       3.735e-02          0.0126
 154       6.491e-01      -3.193e+00       6.383e-03          -0.091          -0.016           0.996       2.334e-02         -0.1873
 155       5.966e-01      -3.193e+00       1.571e-03          -0.098          -0.018           0.995       7.941e-03         -0.6674
Strip 13
 156       1.976e+00      -2.813e+00       3.508e-04           0.066           0.012           0.998       8.359e-03          0.0672
 157       1.944e+00      -2.813e+00       2.388e-03           0.063           0.011           0.998       2.459e-02          0.1122
 158       1.872e+00      -2.813e+00       6.763e-03           0.056           0.010           0.998       3.937e-02          0.1558
 159       1.763e+00      -2.813e+00       1.261e-02           0.048           0.009           0.999       5.185e-02          0.1916
 160       1.625e+00      -2.813e+00       1.878e-02           0.037           0.007           0.999       6.131e-02          0.2191
 161       1.464e+00      -2.813e+00       2.415e-02           0.024           0.004           1.000       6.720e-02          0.2379
 162       1.291e+00      -2.813e+00       2.778e-02           0.011           0.002           1.000       6.920e-02          0.2553
 163       1.115e+00      -2.813e+00       2.901e-02          -0.006          -0.001           1.000       6.718e-02          0.2689
 164       9.466e-01      -2.813e+00       2.700e-02          -0.033          -0.006           0.999       6.130e-02          0.2264
 165       7.958e-01      -2.813e+00       2.127e-02          -0.057          -0.010           0.998       5.188e-02          0.1418
 166       6.711e-01      -2.813e+00       1.363e-02          -0.077          -0.014           0.997       3.943e-02          0.0166
 167       5.799e-01      -2.813e+00       6.383e-03          -0.091          -0.016           0.996       2.464e-02         -0.1812
 168       5.275e-01      -2.813e+00       1.571e-03          -0.098          -0.018           0.995       8.382e-03         -0.6532
Strip 14
 169       1.903e+00      -2.414e+00       3.508e-04           0.066           0.012           0.998       8.742e-03          0.0675
 170       1.872e+00      -2.414e+00       2.388e-03           0.063           0.011           0.998       2.571e-02          0.1128
 171       1.799e+00      -2.414e+00       6.763e-03           0.056           0.010           0.998       4.117e-02          0.1567
 172       1.691e+00      -2.414e+00       1.261e-02           0.048           0.009           0.999       5.423e-02          0.1926
 173       1.552e+00      -2.414e+00       1.878e-02           0.037           0.007           0.999       6.412e-02          0.2204
 174       1.391e+00      -2.414e+00       2.415e-02           0.024           0.004           1.000       7.028e-02          0.2393
 175       1.218e+00      -2.414e+00       2.778e-02           0.011           0.002           1.000       7.237e-02          0.2569
 176       1.042e+00      -2.414e+00       2.901e-02          -0.006          -0.001           1.000       7.026e-02          0.2706
 177       8.740e-01      -2.414e+00       2.700e-02          -0.033          -0.006           0.999       6.411e-02          0.2282
 178       7.231e-01      -2.414e+00       2.127e-02          -0.057          -0.010           0.998       5.426e-02          0.1439
 179       5.985e-01      -2.414e+00       1.363e-02          -0.077          -0.014           0.997       4.123e-02          0.0192
 180       5.073e-01      -2.414e+00       6.383e-03          -0.091          -0.016           0.996       2.577e-02         -0.1771
 181       4.548e-01      -2.414e+00       1.571e-03          -0.098          -0.018           0.995       8.765e-03         -0.6436
Strip 15
 182       1.828e+00      -1.998e+00       3.508e-04           0.066           0.012           0.998       9.065e-03          0.0677
 183       1.796e+00      -1.998e+00       2.388e-03           0.063           0.011           0.998       2.666e-02          0.1132
 184       1.724e+00      -1.998e+00       6.763e-03           0.056           0.010           0.998       4.270e-02          0.1572
 185       1.615e+00      -1.998e+00       1.261e-02           0.048           0.009           0.999       5.623e-02          0.1934
 186       1.477e+00      -1.998e+00       1.878e-02           0.037           0.007           0.999       6.649e-02          0.2212
 187       1.316e+00      -1.998e+00       2.415e-02           0.024           0.004           1.000       7.288e-02          0.2403
 188       1.142e+00      -1.998e+00       2.778e-02           0.011           0.002           1.000       7.504e-02          0.2578
 189       9.666e-01      -1.998e+00       2.901e-02          -0.006          -0.001           1.000       7.286e-02          0.2716
 190       7.983e-01      -1.998e+00       2.700e-02          -0.033          -0.006           0.999       6.648e-02          0.2292
 191       6.475e-01      -1.998e+00       2.127e-02          -0.057          -0.010           0.998       5.626e-02          0.1450
 192       5.229e-01      -1.998e+00       1.363e-02          -0.077          -0.014           0.997       4.276e-02          0.0206
 193       4.317e-01      -1.998e+00       6.383e-03          -0.091          -0.016           0.996       2.672e-02         -0.1751
 194       3.792e-01      -1.998e+00       1.571e-03          -0.098          -0.018           0.995       9.089e-03         -0.6390
Strip 16
 195       1.750e+00      -1.568e+00       3.508e-04           0.066           0.012           0.998       9.326e-03          0.0679
 196       1.718e+00      -1.568e+00       2.388e-03           0.063           0.011           0.998       2.743e-02          0.1135
 197       1.646e+00      -1.568e+00       6.763e-03           0.056           0.010           0.998       4.393e-02          0.1576
 198       1.537e+00      -1.568e+00       1.261e-02           0.048           0.009           0.999       5.785e-02          0.1938
 199       1.398e+00      -1.568e+00       1.878e-02           0.037           0.007           0.999       6.840e-02          0.2217
 200       1.238e+00      -1.568e+00       2.415e-02           0.024           0.004           1.000       7.498e-02          0.2407
 201       1.064e+00      -1.568e+00       2.778e-02           0.011           0.002           1.000       7.720e-02          0.2583
 202       8.885e-01      -1.568e+00       2.901e-02          -0.006          -0.001           1.000       7.496e-02          0.2719
 203       7.202e-01      -1.568e+00       2.700e-02          -0.033          -0.006           0.999       6.839e-02          0.2294
 204       5.694e-01      -1.568e+00       2.127e-02          -0.057          -0.010           0.998       5.788e-02          0.1450
 205       4.448e-01      -1.568e+00       1.363e-02          -0.077          -0.014           0.997       4.399e-02          0.0204
 206       3.536e-01      -1.568e+00       6.383e-03          -0.091          -0.016           0.996       2.749e-02         -0.1755
 207       3.011e-01      -1.568e+00       1.571e-03          -0.098          -0.018           0.995       9.351e-03         -0.6401
Strip 17
 208       1.670e+00      -1.128e+00       3.508e-04           0.066           0.012           0.998       9.523e-03          0.0681
 209       1.638e+00      -1.128e+00       2.388e-03           0.063           0.011           0.998       2.801e-02          0.1137
 210       1.566e+00      -1.128e+00       6.763e-03           0.056           0.010           0.998       4.486e-02          0.1579
 211       1.457e+00      -1.128e+00       1.261e-02           0.048           0.009           0.999       5.908e-02          0.1941
 212       1.318e+00      -1.128e+00       1.878e-02           0.037           0.007           0.999       6.985e-02          0.2220
 213       1.158e+00      -1.128e+00       2.415e-02           0.024           0.004           1.000       7.656e-02          0.2409
 214       9.843e-01      -1.128e+00       2.778e-02           0.011           0.002           1.000       7.884e-02          0.2581
 215       8.084e-01      -1.128e+00       2.901e-02          -0.006          -0.001           1.000       7.654e-02          0.2714
 216       6.402e-01      -1.128e+00       2.700e-02          -0.033          -0.006           0.999       6.984e-02          0.2286
 217       4.894e-01      -1.128e+00       2.127e-02          -0.057          -0.010           0.998       5.911e-02          0.1437
 218       3.647e-01      -1.128e+00       1.363e-02          -0.077          -0.014           0.997       4.492e-02          0.0184
 219       2.735e-01      -1.128e+00       6.383e-03          -0.091          -0.016           0.996       2.807e-02         -0.1789
 220       2.211e-01      -1.128e+00       1.571e-03          -0.098          -0.018           0.995       9.549e-03         -0.6482
Strip 18
 221       1.588e+00      -6.797e-01       3.508e-04           0.066           0.012           0.998       9.656e-03          0.0684
 222       1.557e+00      -6.797e-01       2.388e-03           0.063           0.011           0.998       2.840e-02          0.1142
 223       1.484e+00      -6.797e-01       6.763e-03           0.056           0.010           0.998       4.548e-02          0.1586
 224       1.376e+00      -6.797e-01       1.261e-02           0.048           0.009           0.999       5.990e-02          0.1948
 225       1.237e+00      -6.797e-01       1.878e-02           0.037           0.007           0.999       7.082e-02          0.2225
 226       1.076e+00      -6.797e-01       2.415e-02           0.024           0.004           1.000       7.763e-02          0.2409
 227       9.029e-01      -6.797e-01       2.778e-02           0.011           0.002           1.000       7.993e-02          0.2575
 228       7.270e-01      -6.797e-01       2.901e-02          -0.006          -0.001           1.000       7.761e-02          0.2700
 229       5.587e-01      -6.797e-01       2.700e-02          -0.033          -0.006           0.999       7.081e-02          0.2262
 230       4.079e-01      -6.797e-01       2.127e-02          -0.057          -0.010           0.998       5.993e-02          0.1404
 231       2.833e-01      -6.797e-01       1.363e-02          -0.077          -0.014           0.997       4.554e-02          0.0137
 232       1.921e-01      -6.797e-01       6.383e-03          -0.091          -0.016           0.996       2.846e-02         -0.1865
 233       1.396e-01      -6.797e-01       1.571e-03          -0.098          -0.018           0.995       9.682e-03         -0.6663
Strip 19
 234       1.506e+00      -2.271e-01       3.508e-04           0.066           0.012           0.998       9.722e-03          0.0697
 235       1.474e+00      -2.271e-01       2.388e-03           0.063           0.011           0.998       2.860e-02          0.1164
 236       1.402e+00      -2.271e-01       6.763e-03           0.056           0.010           0.998       4.579e-02          0.1614
 237       1.293e+00      -2.271e-01       1.261e-02           0.048           0.009           0.999       6.031e-02          0.1976
 238       1.155e+00      -2.271e-01       1.878e-02           0.037           0.007           0.999       7.131e-02          0.2245
 239       9.939e-01      -2.271e-01       2.415e-02           0.024           0.004           1.000       7.816e-02          0.2415
 240       8.206e-01      -2.271e-01       2.778e-02           0.011           0.002           1.000       8.048e-02          0.2562
 241       6.447e-01      -2.271e-01       2.901e-02          -0.006          -0.001           1.000       7.814e-02          0.2665
 242       4.764e-01      -2.271e-01       2.700e-02          -0.033          -0.006           0.999       7.130e-02          0.2207
 243       3.256e-01      -2.271e-01       2.127e-02          -0.057          -0.010           0.998       6.034e-02          0.1331
 244       2.010e-01      -2.271e-01       1.363e-02          -0.077          -0.014           0.997       4.586e-02          0.0045
 245       1.098e-01      -2.271e-01       6.383e-03          -0.091          -0.016           0.996       2.866e-02         -0.2000
 246       5.731e-02      -2.271e-01       1.571e-03          -0.098          -0.018           0.995       9.749e-03         -0.6970
Strip 20
 247       1.506e+00       2.271e-01       3.508e-04           0.066          -0.012           0.998       9.722e-03          0.0697
 248       1.474e+00       2.271e-01       2.388e-03           0.063          -0.011           0.998       2.860e-02          0.1164
 249       1.402e+00       2.271e-01       6.763e-03           0.056          -0.010           0.998       4.579e-02          0.1614
 250       1.293e+00       2.271e-01       1.261e-02           0.048          -0.009           0.999       6.031e-02          0.1976
 251       1.155e+00       2.271e-01       1.878e-02           0.037          -0.007           0.999       7.131e-02          0.2245
 252       9.939e-01       2.271e-01       2.415e-02           0.024          -0.004           1.000       7.816e-02          0.2415
 253       8.206e-01       2.271e-01       2.778e-02           0.011          -0.002           1.000       8.048e-02          0.2562
 254       6.447e-01       2.271e-01       2.901e-02          -0.006           0.001           1.000       7.814e-02          0.2665
 255       4.764e-01       2.271e-01       2.700e-02          -0.033           0.006           0.999       7.130e-02          0.2207
 256       3.256e-01       2.271e-01       2.127e-02          -0.057           0.010           0.998       6.034e-02          0.1331
 257       2.010e-01       2.271e-01       1.363e-02          -0.077           0.014           0.997       4.586e-02          0.0045
 258       1.098e-01       2.271e-01       6.383e-03          -0.091           0.016           0.996       2.866e-02         -0.2000
 259       5.731e-02       2.271e-01       1.571e-03          -0.098           0.018           0.995       9.749e-03         -0.6970
Strip 21
 260       1.588e+00       6.797e-01       3.508e-04           0.066          -0.012           0.998       9.656e-03          0.0684
 261       1.557e+00       6.797e-01       2.388e-03           0.063          -0.011           0.998       2.840e-02          0.1142
 262       1.484e+00       6.797e-01       6.763e-03           0.056          -0.010           0.998       4.548e-02          0.1586
 263       1.376e+00       6.797e-01       1.261e-02           0.048          -0.009           0.999       5.990e-02          0.1948
 264       1.237e+00       6.797e-01       1.878e-02           0.037          -0.007           0.999       7.082e-02          0.2225
 265       1.076e+00       6.797e-01       2.415e-02           0.024          -0.004           1.000       7.763e-02          0.2409
 266       9.029e-01       6.797e-01       2.778e-02           0.011          -0.002           1.000       7.993e-02          0.2575
 267       7.270e-01       6.797e-01       2.901e-02          -0.006           0.001           1.000       7.761e-02          0.2700
 268       5.587e-01       6.797e-01       2.700e-02          -0.033           0.006           0.999       7.081e-02          0.2262
 269       4.079e-01       6.797e-01       2.127e-02          -0.057           0.010           0.998       5.993e-02          0.1404
 270       2.833e-01       6.797e-01       1.363e-02          -0.077           0.014           0.997       4.554e-02          0.0137
 271       1.921e-01       6.797e-01       6.383e-03          -0.091           0.016           0.996       2.846e-02         -0.1865
 272       1.396e-01       6.797e-01       1.571e-03          -0.098           0.018           0.995       9.682e-03         -0.6663
Strip 22
 273       1.670e+00       1.128e+00       3.508e-04           0.066          -0.012           0.998       9.523e-03          0.0681
 274       1.638e+00       1.128e+00       2.388e-03           0.063          -0.011           0.998       2.801e-02          0.1137
 275       1.566e+00       1.128e+00       6.763e-03           0.056          -0.010           0.998       4.486e-02          0.1579
 276       1.457e+00       1.128e+00       1.261e-02           0.048          -0.009           0.999       5.908e-02          0.1941
 277       1.318e+00       1.128e+00       1.878e-02           0.037          -0.007           0.999       6.985e-02          0.2220
 278       1.158e+00       1.128e+00       2.415e-02           0.024          -0.004           1.000       7.656e-02          0.2409
 279       9.843e-01       1.128e+00       2.778e-02           0.011          -0.002           1.000       7.884e-02          0.2581
 280       8.084e-01       1.128e+00       2.901e-02          -0.006           0.001           1.000       7.654e-02          0.2714
 281       6.402e-01       1.128e+00       2.700e-02          -0.033           0.006           0.999       6.984e-02          0.2286
 282       4.894e-01       1.128e+00       2.127e-02          -0.057           0.010           0.998       5.911e-02          0.1437
 283       3.647e-01       1.128e+00       1.363e-02          -0.077           0.014           0.997       4.492e-02          0.0184
 284       2.735e-01       1.128e+00       6.383e-03          -0.091           0.016           0.996       2.807e-02         -0.1789
 285       2.211e-01       1.128e+00       1.571e-03          -0.098           0.018           0.995       9.549e-03         -0.6482
Strip 23
 286       1.750e+00       1.568e+00       3.508e-04           0.066          -0.012           0.998       9.326e-03          0.0679
 287       1.718e+00       1.568e+00       2.388e-03           0.063          -0.011           0.998       2.743e-02          0.1135
 288       1.646e+00       1.568e+00       6.763e-03           0.056          -0.010           0.998       4.393e-02          0.1576
 289       1.537e+00       1.568e+00       1.261e-02           0.048          -0.009           0.999       5.785e-02          0.1938
 290       1.398e+00       1.568e+00       1.878e-02           0.037          -0.007           0.999       6.840e-02          0.2217
 291       1.238e+00       1.568e+00       2.415e-02           0.024          -0.004           1.000       7.498e-02          0.2407
 292       1.064e+00       1.568e+00       2.778e-02           0.011          -0.002           1.000       7.720e-02          0.2583
 293       8.885e-01       1.568e+00       2.901e-02          -0.006           0.001           1.000       7.496e-02          0.2719
 294       7.202e-01       1.568e+00       2.700e-02          -0.033           0.006           0.999       6.839e-02          0.2294
 295       5.694e-01       1.568e+00       2.127e-02          -0.057           0.010           0.998       5.788e-02          0.1450
 296       4.448e-01       1.568e+00       1.363e-02          -0.077           0.014           0.997       4.399e-02          0.0204
 297       3.536e-01       1.568e+00       6.383e-03          -0.091           0.016           0.996       2.749e-02         -0.1755
 298       3.011e-01       1.568e+00       1.571e-03          -0.098           0.018           0.995       9.351e-03         -0.6401
Strip 24
 299       1.828e+00       1.998e+00       3.508e-04           0.066          -0.012           0.998       9.065e-03          0.0677
 300       1.796e+00       1.998e+00       2.388e-03           0.063          -0.011           0.998       2.666e-02          0.1132
 301       1.724e+00       1.998e+00       6.763e-03           0.056          -0.010           0.998       4.270e-02          0.1572
 302       1.615e+00       1.998e+00       1.261e-02           0.048          -0.009           0.999       5.623e-02          0.1934
 303       1.477e+00       1.998e+00       1.878e-02           0.037          -0.007           0.999       6.649e-02          0.2212
 304       1.316e+00       1.998e+00       2.415e-02           0.024          -0.004           1.000       7.288e-02          0.2403
 305       1.142e+00       1.998e+00       2.778e-02           0.011          -0.002           1.000       7.504e-02          0.2578
 306       9.666e-01       1.998e+00       2.901e-02          -0.006           0.001           1.000       7.286e-02          0.2716
 307       7.983e-01       1.998e+00       2.700e-02          -0.033           0.006           0.999       6.648e-02          0.2292
 308       6.475e-01       1.998e+00       2.127e-02          -0.057           0.010           0.998       5.626e-02          0.1450
 309       5.229e-01       1.998e+00       1.363e-02          -0.077           0.014           0.997       4.276e-02          0.0206
 310       4.317e-01       1.998e+00       6.383e-03          -0.091           0.016           0.996       2.672e-02         -0.1751
 311       3.792e-01       1.998e+00       1.571e-03          -0.098           0.018           0.995       9.089e-03         -0.6390
Strip 25
 312       1.903e+00       2.414e+00       3.508e-04           0.066          -0.012           0.998       8.742e-03          0.0675
 313       1.872e+00       2.414e+00       2.388e-03           0.063          -0.011           0.998       2.571e-02          0.1128
 314       1.799e+00       2.414e+00       6.763e-03           0.056          -0.010           0.998       4.117e-02          0.1567
 315       1.691e+00       2.414e+00       1.261e-02           0.048          -0.009           0.999       5.423e-02          0.1926
 316       1.552e+00       2.414e+00       1.878e-02           0.037          -0.007           0.999       6.412e-02          0.2204
 317       1.391e+00       2.414e+00       2.415e-02           0.024          -0.004           1.000       7.028e-02          0.2393
 318       1.218e+00       2.414e+00       2.778e-02           0.011          -0.002           1.000       7.237e-02          0.2569
 319       1.042e+00       2.414e+00       2.901e-02          -0.006           0.001           1.000       7.026e-02          0.2706
 320       8.740e-01       2.414e+00       2.700e-02          -0.033           0.006           0.999       6.411e-02          0.2282
 321       7.231e-01       2.414e+00       2.127e-02          -0.057           0.010           0.998       5.426e-02          0.1439
 322       5.985e-01       2.414e+00       1.363e-02          -0.077           0.014           0.997       4.123e-02          0.0192
 323       5.073e-01       2.414e+00       6.383e-03          -0.091           0.016           0.996       2.577e-02         -0.1771
 324       4.548e-01       2.414e+00       1.571e-03          -0.098           0.018           0.995       8.765e-03         -0.6436
Strip 26
 325       1.976e+00       2.813e+00       3.508e-04           0.066          -0.012           0.998       8.359e-03          0.0672
 326       1.944e+00       2.813e+00       2.388e-03           0.063          -0.011           0.998       2.459e-02          0.1122
 327       1.872e+00       2.813e+00       6.763e-03           0.056          -0.010           0.998       3.937e-02          0.1558
 328       1.763e+00       2.813e+00       1.261e-02           0.048          -0.009           0.999       5.185e-02          0.1916
 329       1.625e+00       2.813e+00       1.878e-02           0.037          -0.007           0.999       6.131e-02          0.2191
 330       1.464e+00       2.813e+00       2.415e-02           0.024          -0.004           1.000       6.720e-02          0.2379
 331       1.291e+00       2.813e+00       2.778e-02           0.011          -0.002           1.000       6.920e-02          0.2553
 332       1.115e+00       2.813e+00       2.901e-02          -0.006           0.001           1.000       6.718e-02          0.2689
 333       9.466e-01       2.813e+00       2.700e-02          -0.033           0.006           0.999       6.130e-02          0.2264
 334       7.958e-01       2.813e+00       2.127e-02          -0.057           0.010           0.998       5.188e-02          0.1418
 335       6.711e-01       2.813e+00       1.363e-02          -0.077           0.014           0.997       3.943e-02          0.0166
 336       5.799e-01       2.813e+00       6.383e-03          -0.091           0.016           0.996       2.464e-02         -0.1812
 337       5.275e-01       2.813e+00       1.571e-03          -0.098           0.018           0.995       8.382e-03         -0.6532
Strip 27
 338       2.045e+00       3.193e+00       3.508e-04           0.066          -0.012           0.998       7.919e-03          0.0667
 339       2.014e+00       3.193e+00       2.388e-03           0.063          -0.011           0.998       2.329e-02          0.1114
 340       1.941e+00       3.193e+00       6.763e-03           0.056          -0.010           0.998       3.730e-02          0.1546
 341       1.833e+00       3.193e+00       1.261e-02           0.048          -0.009           0.999       4.912e-02          0.1901
 342       1.694e+00       3.193e+00       1.878e-02           0.037          -0.007           0.999       5.808e-02          0.2173
 343       1.533e+00       3.193e+00       2.415e-02           0.024          -0.004           1.000       6.367e-02          0.2359
 344       1.360e+00       3.193e+00       2.778e-02           0.011          -0.002           1.000       6.556e-02          0.2531
 345       1.184e+00       3.193e+00       2.901e-02          -0.006           0.001           1.000       6.365e-02          0.2664
 346       1.016e+00       3.193e+00       2.700e-02          -0.033           0.006           0.999       5.808e-02          0.2237
 347       8.649e-01       3.193e+00       2.127e-02          -0.057           0.010           0.998       4.915e-02          0.1387
 348       7.403e-01       3.193e+00       1.363e-02          -0.077           0.014           0.997       3.735e-02          0.0126
 349       6.491e-01       3.193e+00       6.383e-03          -0.091           0.016           0.996       2.334e-02         -0.1873
 350       5.966e-01       3.193e+00       1.571e-03          -0.098           0.018           0.995       7.941e-03         -0.6674
Strip 28
 351       2.110e+00       3.552e+00       3.508e-04           0.066          -0.012           0.998       7.425e-03          0.0661
 352       2.079e+00       3.552e+00       2.388e-03           0.063          -0.011           0.998       2.184e-02          0.1102
 353       2.006e+00       3.552e+00       6.763e-03           0.056          -0.010           0.998       3.497e-02          0.1530
 354       1.898e+00       3.552e+00       1.261e-02           0.048          -0.009           0.999       4.606e-02          0.1880
 355       1.759e+00       3.552e+00       1.878e-02           0.037          -0.007           0.999       5.446e-02          0.2149
 356       1.598e+00       3.552e+00       2.415e-02           0.024          -0.004           1.000       5.970e-02          0.2331
 357       1.425e+00       3.552e+00       2.778e-02           0.011          -0.002           1.000       6.147e-02          0.2500
 358       1.249e+00       3.552e+00       2.901e-02          -0.006           0.001           1.000       5.968e-02          0.2631
 359       1.081e+00       3.552e+00       2.700e-02          -0.033           0.006           0.999       5.445e-02          0.2201
 360       9.301e-01       3.552e+00       2.127e-02          -0.057           0.010           0.998       4.608e-02          0.1345
 361       8.054e-01       3.552e+00       1.363e-02          -0.077           0.014           0.997       3.502e-02          0.0074
 362       7.142e-01       3.552e+00       6.383e-03          -0.091           0.016           0.996       2.189e-02         -0.1954
 363       6.618e-01       3.552e+00       1.571e-03          -0.098           0.018           0.995       7.445e-03         -0.6863
Strip 29
 364       2.171e+00       3.886e+00       3.508e-04           0.066          -0.012           0.998       6.880e-03          0.0651
 365       2.139e+00       3.886e+00       2.388e-03           0.063          -0.011           0.998       2.024e-02          0.1087
 366       2.067e+00       3.886e+00       6.763e-03           0.056          -0.010           0.998       3.241e-02          0.1508
 367       1.959e+00       3.886e+00       1.261e-02           0.048          -0.009           0.999       4.268e-02          0.1851
 368       1.820e+00       3.886e+00       1.878e-02           0.037          -0.007           0.999       5.047e-02          0.2115
 369       1.659e+00       3.886e+00       2.415e-02           0.024          -0.004           1.000       5.532e-02          0.2293
 370       1.486e+00       3.886e+00       2.778e-02           0.011          -0.002           1.000       5.696e-02          0.2460
 371       1.310e+00       3.886e+00       2.901e-02          -0.006           0.001           1.000       5.530e-02          0.2589
 372       1.142e+00       3.886e+00       2.700e-02          -0.033           0.006           0.999       5.046e-02          0.2154
 373       9.908e-01       3.886e+00       2.127e-02          -0.057           0.010           0.998       4.270e-02          0.1293
 374       8.662e-01       3.886e+00       1.363e-02          -0.077           0.014           0.997       3.245e-02          0.0008
 375       7.750e-01       3.886e+00       6.383e-03          -0.091           0.016           0.996       2.028e-02         -0.2054
 376       7.225e-01       3.886e+00       1.571e-03          -0.098           0.018           0.995       6.899e-03         -0.7096
Strip 30
 377       2.227e+00       4.193e+00       3.508e-04           0.066          -0.012           0.998       6.289e-03          0.0639
 378       2.195e+00       4.193e+00       2.388e-03           0.063          -0.011           0.998       1.850e-02          0.1065
 379       2.123e+00       4.193e+00       6.763e-03           0.056          -0.010           0.998       2.962e-02          0.1476
 380       2.014e+00       4.193e+00       1.261e-02           0.048          -0.009           0.999       3.901e-02          0.1811
 381       1.876e+00       4.193e+00       1.878e-02           0.037          -0.007           0.999       4.613e-02          0.2068
 382       1.715e+00       4.193e+00       2.415e-02           0.024          -0.004           1.000       5.056e-02          0.2242
 383       1.542e+00       4.193e+00       2.778e-02           0.011          -0.002           1.000       5.206e-02          0.2406
 384       1.366e+00       4.193e+00       2.901e-02          -0.006           0.001           1.000       5.054e-02          0.2534
 385       1.198e+00       4.193e+00       2.700e-02          -0.033           0.006           0.999       4.612e-02          0.2097
 386       1.047e+00       4.193e+00       2.127e-02          -0.057           0.010           0.998       3.903e-02          0.1230
 387       9.221e-01       4.193e+00       1.363e-02          -0.077           0.014           0.997       2.966e-02         -0.0069
 388       8.309e-01       4.193e+00       6.383e-03          -0.091           0.016           0.996       1.854e-02         -0.2171
 389       7.785e-01       4.193e+00       1.571e-03          -0.098           0.018           0.995       6.306e-03         -0.7368
Strip 31
 390       2.278e+00       4.472e+00       3.508e-04           0.066          -0.012           0.998       5.654e-03          0.0621
 391       2.246e+00       4.472e+00       2.388e-03           0.063          -0.011           0.998       1.663e-02          0.1034
 392       2.174e+00       4.472e+00       6.763e-03           0.056          -0.010           0.998       2.663e-02          0.1432
 393       2.065e+00       4.472e+00       1.261e-02           0.048          -0.009           0.999       3.507e-02          0.1754
 394       1.926e+00       4.472e+00       1.878e-02           0.037          -0.007           0.999       4.147e-02          0.2002
 395       1.766e+00       4.472e+00       2.415e-02           0.024          -0.004           1.000       4.546e-02          0.2171
 396       1.592e+00       4.472e+00       2.778e-02           0.011          -0.002           1.000       4.681e-02          0.2335
 397       1.417e+00       4.472e+00       2.901e-02          -0.006           0.001           1.000       4.544e-02          0.2464
 398       1.248e+00       4.472e+00       2.700e-02          -0.033           0.006           0.999       4.146e-02          0.2029
 399       1.097e+00       4.472e+00       2.127e-02          -0.057           0.010           0.998       3.509e-02          0.1158
 400       9.728e-01       4.472e+00       1.363e-02          -0.077           0.014           0.997       2.667e-02         -0.0156
 401       8.816e-01       4.472e+00       6.383e-03          -0.091           0.016           0.996       1.667e-02         -0.2300
 402       8.292e-01       4.472e+00       1.571e-03          -0.098           0.018           0.995       5.669e-03         -0.7666
Strip 32
 403       2.323e+00       4.721e+00       3.508e-04           0.066          -0.012           0.998       4.981e-03          0.0596
 404       2.291e+00       4.721e+00       2.388e-03           0.063          -0.011           0.998       1.465e-02          0.0991
 405       2.219e+00       4.721e+00       6.763e-03           0.056          -0.010           0.998       2.346e-02          0.1369
 406       2.110e+00       4.721e+00       1.261e-02           0.048          -0.009           0.999       3.090e-02          0.1674
 407       1.972e+00       4.721e+00       1.878e-02           0.037          -0.007           0.999       3.653e-02          0.1909
 408       1.811e+00       4.721e+00       2.415e-02           0.024          -0.004           1.000       4.004e-02          0.2073
 409       1.638e+00       4.721e+00       2.778e-02           0.011          -0.002           1.000       4.123e-02          0.2238
 410       1.462e+00       4.721e+00       2.901e-02          -0.006           0.001           1.000       4.003e-02          0.2375
 411       1.293e+00       4.721e+00       2.700e-02          -0.033           0.006           0.999       3.653e-02          0.1947
 412       1.143e+00       4.721e+00       2.127e-02          -0.057           0.010           0.998       3.091e-02          0.1078
 413       1.018e+00       4.721e+00       1.363e-02          -0.077           0.014           0.997       2.349e-02         -0.0246
 414       9.268e-01       4.721e+00       6.383e-03          -0.091           0.016           0.996       1.468e-02         -0.2431
 415       8.743e-01       4.721e+00       1.571e-03          -0.098           0.018           0.995       4.994e-03         -0.7966
Strip 33
 416       2.362e+00       4.937e+00       3.508e-04           0.066          -0.012           0.998       4.274e-03          0.0562
 417       2.331e+00       4.937e+00       2.388e-03           0.063          -0.011           0.998       1.257e-02          0.0931
 418       2.258e+00       4.937e+00       6.763e-03           0.056          -0.010           0.998       2.013e-02          0.1282
 419       2.150e+00       4.937e+00       1.261e-02           0.048          -0.009           0.999       2.651e-02          0.1562
 420       2.011e+00       4.937e+00       1.878e-02           0.037          -0.007           0.999       3.135e-02          0.1779
 421       1.850e+00       4.937e+00       2.415e-02           0.024          -0.004           1.000       3.436e-02          0.1934
 422       1.677e+00       4.937e+00       2.778e-02           0.011          -0.002           1.000       3.538e-02          0.2104
 423       1.501e+00       4.937e+00       2.901e-02          -0.006           0.001           1.000       3.435e-02          0.2258
 424       1.333e+00       4.937e+00       2.700e-02          -0.033           0.006           0.999       3.134e-02          0.1852
 425       1.182e+00       4.937e+00       2.127e-02          -0.057           0.010           0.998       2.652e-02          0.0998
 426       1.057e+00       4.937e+00       1.363e-02          -0.077           0.014           0.997       2.016e-02         -0.0328
 427       9.661e-01       4.937e+00       6.383e-03          -0.091           0.016           0.996       1.260e-02         -0.2546
 428       9.136e-01       4.937e+00       1.571e-03          -0.098           0.018           0.995       4.285e-03         -0.8227
Strip 34
 429       2.395e+00       5.119e+00       3.508e-04           0.066          -0.012           0.998       3.537e-03          0.0518
 430       2.364e+00       5.119e+00       2.388e-03           0.063          -0.011           0.998       1.040e-02          0.0853
 431       2.291e+00       5.119e+00       6.763e-03           0.056          -0.010           0.998       1.666e-02          0.1166
 432       2.183e+00       5.119e+00       1.261e-02           0.048          -0.009           0.999       2.194e-02          0.1412
 433       2.044e+00       5.119e+00       1.878e-02           0.037          -0.007           0.999       2.594e-02          0.1601
 434       1.883e+00       5.119e+00       2.415e-02           0.024          -0.004           1.000       2.844e-02          0.1741
 435       1.710e+00       5.119e+00       2.778e-02           0.011          -0.002           1.000       2.928e-02          0.1915
 436       1.534e+00       5.119e+00       2.901e-02          -0.006           0.001           1.000       2.843e-02          0.2096
 437       1.366e+00       5.119e+00       2.700e-02          -0.033           0.006           0.999       2.594e-02          0.1736
 438       1.215e+00       5.119e+00       2.127e-02          -0.057           0.010           0.998       2.195e-02          0.0925
 439       1.090e+00       5.119e+00       1.363e-02          -0.077           0.014           0.997       1.668e-02         -0.0382
 440       9.993e-01       5.119e+00       6.383e-03          -0.091           0.016           0.996       1.043e-02         -0.2614
 441       9.468e-01       5.119e+00       1.571e-03          -0.098           0.018           0.995       3.547e-03         -0.8380
Strip 35
 442       2.422e+00       5.267e+00       3.508e-04           0.066          -0.012           0.998       2.776e-03          0.0461
 443       2.391e+00       5.267e+00       2.388e-03           0.063          -0.011           0.998       8.166e-03          0.0753
 444       2.318e+00       5.267e+00       6.763e-03           0.056          -0.010           0.998       1.308e-02          0.1017
 445       2.210e+00       5.267e+00       1.261e-02           0.048          -0.009           0.999       1.722e-02          0.1218
 446       2.071e+00       5.267e+00       1.878e-02           0.037          -0.007           0.999       2.036e-02          0.1371
 447       1.910e+00       5.267e+00       2.415e-02           0.024          -0.004           1.000       2.232e-02          0.1488
 448       1.737e+00       5.267e+00       2.778e-02           0.011          -0.002           1.000       2.298e-02          0.1656
 449       1.561e+00       5.267e+00       2.901e-02          -0.006           0.001           1.000       2.232e-02          0.1865
 450       1.393e+00       5.267e+00       2.700e-02          -0.033           0.006           0.999       2.036e-02          0.1579
 451       1.242e+00       5.267e+00       2.127e-02          -0.057           0.010           0.998       1.723e-02          0.0865
 452       1.117e+00       5.267e+00       1.363e-02          -0.077           0.014           0.997       1.310e-02         -0.0375
 453       1.026e+00       5.267e+00       6.383e-03          -0.091           0.016           0.996       8.185e-03         -0.2582
 454       9.736e-01       5.267e+00       1.571e-03          -0.098           0.018           0.995       2.784e-03         -0.8320
Strip 36
 455       2.443e+00       5.378e+00       3.508e-04           0.066          -0.012           0.998       1.997e-03          0.0392
 456       2.411e+00       5.378e+00       2.388e-03           0.063          -0.011           0.998       5.873e-03          0.0627
 457       2.339e+00       5.378e+00       6.763e-03           0.056          -0.010           0.998       9.405e-03          0.0831
 458       2.230e+00       5.378e+00       1.261e-02           0.048          -0.009           0.999       1.239e-02          0.0979
 459       2.091e+00       5.378e+00       1.878e-02           0.037          -0.007           0.999       1.465e-02          0.1092
 460       1.931e+00       5.378e+00       2.415e-02           0.024          -0.004           1.000       1.605e-02          0.1179
 461       1.757e+00       5.378e+00       2.778e-02           0.011          -0.002           1.000       1.653e-02          0.1324
 462       1.581e+00       5.378e+00       2.901e-02          -0.006           0.001           1.000       1.605e-02          0.1541
 463       1.413e+00       5.378e+00       2.700e-02          -0.033           0.006           0.999       1.464e-02          0.1343
 464       1.262e+00       5.378e+00       2.127e-02          -0.057           0.010           0.998       1.239e-02          0.0793
 465       1.138e+00       5.378e+00       1.363e-02          -0.077           0.014           0.997       9.418e-03         -0.0265
 466       1.046e+00       5.378e+00       6.383e-03          -0.091           0.016           0.996       5.886e-03         -0.2367
 467       9.939e-01       5.378e+00       1.571e-03          -0.098           0.018           0.995       2.002e-03         -0.7893
Strip 37
 468       2.456e+00       5.453e+00       3.508e-04           0.066          -0.012           0.998       1.204e-03          0.0306
 469       2.424e+00       5.453e+00       2.388e-03           0.063          -0.011           0.998       3.540e-03          0.0472
 470       2.352e+00       5.453e+00       6.763e-03           0.056          -0.010           0.998       5.669e-03          0.0606
 471       2.243e+00       5.453e+00       1.261e-02           0.048          -0.009           0.999       7.466e-03          0.0702
 472       2.105e+00       5.453e+00       1.878e-02           0.037          -0.007           0.999       8.828e-03          0.0776
 473       1.944e+00       5.453e+00       2.415e-02           0.024          -0.004           1.000       9.676e-03          0.0831
 474       1.771e+00       5.453e+00       2.778e-02           0.011          -0.002           1.000       9.964e-03          0.0939
 475       1.595e+00       5.453e+00       2.901e-02          -0.006           0.001           1.000       9.674e-03          0.1123
 476       1.427e+00       5.453e+00       2.700e-02          -0.033           0.006           0.999       8.827e-03          0.1000
 477       1.276e+00       5.453e+00       2.127e-02          -0.057           0.010           0.998       7.470e-03          0.0641
 478       1.151e+00       5.453e+00       1.363e-02          -0.077           0.014           0.997       5.677e-03         -0.0078
 479       1.060e+00       5.453e+00       6.383e-03          -0.091           0.016           0.996       3.548e-03         -0.1818
 480       1.007e+00       5.453e+00       1.571e-03          -0.098           0.018           0.995       1.207e-03         -0.6886
Strip 38
 481       2.463e+00       5.491e+00       3.508e-04           0.066          -0.012           0.998       4.021e-04          0.0207
 482       2.431e+00       5.491e+00       2.388e-03           0.063          -0.011           0.998       1.183e-03          0.0288
 483       2.359e+00       5.491e+00       6.763e-03           0.056          -0.010           0.998       1.894e-03          0.0360
 484       2.250e+00       5.491e+00       1.261e-02           0.048          -0.009           0.999       2.494e-03          0.0413
 485       2.112e+00       5.491e+00       1.878e-02           0.037          -0.007           0.999       2.949e-03          0.0454
 486       1.951e+00       5.491e+00       2.415e-02           0.024          -0.004           1.000       3.233e-03          0.0486
 487       1.778e+00       5.491e+00       2.778e-02           0.011          -0.002           1.000       3.329e-03          0.0549
 488       1.602e+00       5.491e+00       2.901e-02          -0.006           0.001           1.000       3.232e-03          0.0665
 489       1.433e+00       5.491e+00       2.700e-02          -0.033           0.006           0.999       2.949e-03          0.0597
 490       1.283e+00       5.491e+00       2.127e-02          -0.057           0.010           0.998       2.496e-03          0.0396
 491       1.158e+00       5.491e+00       1.363e-02          -0.077           0.014           0.997       1.897e-03          0.0005
 492       1.067e+00       5.491e+00       6.383e-03          -0.091           0.016           0.996       1.185e-03         -0.0946
 493       1.014e+00       5.491e+00       1.571e-03          -0.098           0.018           0.995       4.032e-04         -0.4918










