xflr5 v6.47

Flying_wing_10
T1-55.0 m/s-VLM2-Inviscid
QInf  =   55.000000 m/s
Alpha =    0.000000
Beta  =    0.000°
Phi   =    0.000°
Ctrl  =    0.000
CL    =    0.128315
Cy    =   -0.000000
Cd    =    0.000838     ICd   =    0.000838     PCd   =    0.000000
Cl   = -1.13468e-16
Cm   =    -0.01656
ICn   =   -0.000000     PCn   =   -0.000000 
XCP   =    3.059315     YCP   =    0.000000     ZCP   =    0.025259  
XNP   =    0.000000
Bending = 4781.113677

Main Wing
  y-span        Chord      Ai         Cl        PCd          ICd        CmGeom    CmAirf@chord/4    XTrtop    XTrBot      XCP       BM
   -5.4906     1.4700    -1.667    0.032397    0.000000    0.000933   -0.053625   -0.010220     0.0000    0.0000    0.5688    0.0000
   -5.4531     1.4700    -1.564    0.054552    0.000000    0.001488   -0.089746   -0.017119     0.0000    0.0000    0.5642    0.0623
   -5.3783     1.4700    -1.427    0.076191    0.000000    0.001897   -0.122069   -0.023719     0.0000    0.0000    0.5614    0.8121
   -5.2668     1.4700    -1.264    0.094657    0.000000    0.002088   -0.145738   -0.029397     0.0000    0.0000    0.5606    4.0927
   -5.1194     1.4700    -1.086    0.109274    0.000000    0.002071   -0.159236   -0.033886     0.0000    0.0000    0.5601   13.3725
   -4.9369     1.4700    -0.908    0.120051    0.000000    0.001902   -0.162628   -0.037099     0.0000    0.0000    0.5590   33.8418
   -4.7208     1.4700    -0.745    0.127515    0.000000    0.001659   -0.157166   -0.039173     0.0000    0.0000    0.5572   72.2319
   -4.4723     1.4700    -0.611    0.132464    0.000000    0.001412   -0.144673   -0.040414     0.0000    0.0000    0.5551   136.4614
   -4.1934     1.4700    -0.507    0.135645    0.000000    0.001201   -0.126845   -0.041143     0.0000    0.0000    0.5533   235.2236
   -3.8858     1.4700    -0.430    0.137589    0.000000    0.001031   -0.104958   -0.041584     0.0000    0.0000    0.5522   377.5764
   -3.5516     1.4700    -0.372    0.138616    0.000000    0.000899   -0.079932   -0.041865     0.0000    0.0000    0.5520   572.5369
   -3.1932     1.4700    -0.328    0.138906    0.000000    0.000795   -0.052492   -0.042057     0.0000    0.0000    0.5528   828.6767
   -2.8130     1.4700    -0.295    0.138540    0.000000    0.000712   -0.023288   -0.042199     0.0000    0.0000    0.5546   1153.7207
   -2.4135     1.4700    -0.268    0.137522    0.000000    0.000644    0.007025   -0.042322     0.0000    0.0000    0.5577   1554.1570
   -1.9976     1.4700    -0.247    0.135775    0.000000    0.000584    0.037700   -0.042453     0.0000    0.0000    0.5627   2034.8601
   -1.5680     1.4700    -0.225    0.133122    0.000000    0.000523    0.067776   -0.042640     0.0000    0.0000    0.5703   2598.7298
   -1.1277     1.4700    -0.197    0.129224    0.000000    0.000444    0.095855   -0.042994     0.0000    0.0000    0.5827   3246.3367
   -0.6797     1.4700    -0.138    0.123472    0.000000    0.000297    0.119609   -0.043848     0.0000    0.0000    0.6051   3975.5520
   -0.2271     1.4700     0.074    0.114939    0.000000   -0.000149    0.134919   -0.046198     0.0000    0.0000    0.6519   4781.1137
    0.2271     1.4700     0.074    0.114939    0.000000   -0.000149    0.134919   -0.046198     0.0000    0.0000    0.6519   4781.1137
    0.6797     1.4700    -0.138    0.123472    0.000000    0.000297    0.119609   -0.043848     0.0000    0.0000    0.6051   3975.5520
    1.1277     1.4700    -0.197    0.129224    0.000000    0.000444    0.095855   -0.042994     0.0000    0.0000    0.5827   3246.3367
    1.5680     1.4700    -0.225    0.133122    0.000000    0.000523    0.067776   -0.042640     0.0000    0.0000    0.5703   2598.7298
    1.9976     1.4700    -0.247    0.135775    0.000000    0.000584    0.037700   -0.042453     0.0000    0.0000    0.5627   2034.8601
    2.4135     1.4700    -0.268    0.137522    0.000000    0.000644    0.007025   -0.042322     0.0000    0.0000    0.5577   1554.1570
    2.8130     1.4700    -0.295    0.138540    0.000000    0.000712   -0.023288   -0.042199     0.0000    0.0000    0.5546   1153.7207
    3.1932     1.4700    -0.328    0.138906    0.000000    0.000795   -0.052492   -0.042057     0.0000    0.0000    0.5528   828.6767
    3.5516     1.4700    -0.372    0.138616    0.000000    0.000899   -0.079932   -0.041865     0.0000    0.0000    0.5520   572.5369
    3.8858     1.4700    -0.430    0.137589    0.000000    0.001031   -0.104958   -0.041584     0.0000    0.0000    0.5522   377.5764
    4.1934     1.4700    -0.507    0.135645    0.000000    0.001201   -0.126845   -0.041143     0.0000    0.0000    0.5533   235.2236
    4.4723     1.4700    -0.611    0.132464    0.000000    0.001412   -0.144673   -0.040414     0.0000    0.0000    0.5551   136.4614
    4.7208     1.4700    -0.745    0.127515    0.000000    0.001659   -0.157166   -0.039173     0.0000    0.0000    0.5572   72.2319
    4.9369     1.4700    -0.908    0.120051    0.000000    0.001902   -0.162628   -0.037099     0.0000    0.0000    0.5590   33.8418
    5.1194     1.4700    -1.086    0.109274    0.000000    0.002071   -0.159236   -0.033886     0.0000    0.0000    0.5601   13.3725
    5.2668     1.4700    -1.264    0.094657    0.000000    0.002088   -0.145738   -0.029397     0.0000    0.0000    0.5606    4.0927
    5.3783     1.4700    -1.427    0.076191    0.000000    0.001897   -0.122069   -0.023719     0.0000    0.0000    0.5614    0.8121
    5.4531     1.4700    -1.564    0.054552    0.000000    0.001488   -0.089746   -0.017119     0.0000    0.0000    0.5642    0.0623
    5.4906     1.4700    -1.667    0.032397    0.000000    0.000933   -0.053625   -0.010220     0.0000    0.0000    0.5688    0.0000


Main Wing Cp Coefficients
 Panel     CtrlPt.x        CtrlPt.y        CtrlPt.z       Nx      Ny       Nz        Area       Cp
Main WingCp Coefficients
Strip 1
   0       5.957e+00      -5.491e+00       3.508e-04           0.065           0.054           0.996       4.027e-04          0.0142
   1       5.925e+00      -5.491e+00       2.388e-03           0.062           0.051           0.997       1.184e-03          0.0204
   2       5.853e+00      -5.491e+00       6.763e-03           0.056           0.046           0.997       1.896e-03          0.0268
   3       5.744e+00      -5.491e+00       1.261e-02           0.048           0.039           0.998       2.496e-03          0.0321
   4       5.606e+00      -5.491e+00       1.878e-02           0.037           0.030           0.999       2.951e-03          0.0369
   5       5.445e+00      -5.491e+00       2.415e-02           0.024           0.020           1.000       3.233e-03          0.0411
   6       5.272e+00      -5.491e+00       2.778e-02           0.011           0.009           1.000       3.329e-03          0.0486
   7       5.096e+00      -5.491e+00       2.901e-02          -0.006          -0.005           1.000       3.232e-03          0.0623
   8       4.927e+00      -5.491e+00       2.700e-02          -0.033          -0.027           0.999       2.950e-03          0.0616
   9       4.777e+00      -5.491e+00       2.127e-02          -0.057          -0.047           0.997       2.498e-03          0.0498
  10       4.652e+00      -5.491e+00       1.363e-02          -0.077          -0.063           0.995       1.900e-03          0.0224
  11       4.561e+00      -5.491e+00       6.383e-03          -0.090          -0.074           0.993       1.188e-03         -0.0520
  12       4.508e+00      -5.491e+00       1.571e-03          -0.097          -0.080           0.992       4.044e-04         -0.4075
Strip 2
  13       5.926e+00      -5.453e+00       3.508e-04           0.065           0.054           0.996       1.205e-03          0.0202
  14       5.895e+00      -5.453e+00       2.388e-03           0.062           0.051           0.997       3.544e-03          0.0328
  15       5.822e+00      -5.453e+00       6.763e-03           0.056           0.046           0.997       5.675e-03          0.0448
  16       5.714e+00      -5.453e+00       1.261e-02           0.048           0.039           0.998       7.471e-03          0.0545
  17       5.575e+00      -5.453e+00       1.878e-02           0.037           0.030           0.999       8.832e-03          0.0631
  18       5.414e+00      -5.453e+00       2.415e-02           0.024           0.020           1.000       9.678e-03          0.0705
  19       5.241e+00      -5.453e+00       2.778e-02           0.011           0.009           1.000       9.964e-03          0.0835
  20       5.065e+00      -5.453e+00       2.901e-02          -0.006          -0.005           1.000       9.674e-03          0.1055
  21       4.897e+00      -5.453e+00       2.700e-02          -0.033          -0.027           0.999       8.830e-03          0.1031
  22       4.746e+00      -5.453e+00       2.127e-02          -0.057          -0.047           0.997       7.478e-03          0.0808
  23       4.621e+00      -5.453e+00       1.363e-02          -0.077          -0.063           0.995       5.688e-03          0.0251
  24       4.530e+00      -5.453e+00       6.383e-03          -0.090          -0.074           0.993       3.557e-03         -0.1226
  25       4.478e+00      -5.453e+00       1.571e-03          -0.097          -0.080           0.992       1.211e-03         -0.4970
Strip 3
  26       5.865e+00      -5.378e+00       3.508e-04           0.065           0.054           0.996       2.000e-03          0.0277
  27       5.833e+00      -5.378e+00       2.388e-03           0.062           0.051           0.997       5.881e-03          0.0453
  28       5.761e+00      -5.378e+00       6.763e-03           0.056           0.046           0.997       9.415e-03          0.0622
  29       5.652e+00      -5.378e+00       1.261e-02           0.048           0.039           0.998       1.240e-02          0.0766
  30       5.514e+00      -5.378e+00       1.878e-02           0.037           0.030           0.999       1.465e-02          0.0894
  31       5.353e+00      -5.378e+00       2.415e-02           0.024           0.020           1.000       1.606e-02          0.1010
  32       5.180e+00      -5.378e+00       2.778e-02           0.011           0.009           1.000       1.653e-02          0.1192
  33       5.004e+00      -5.378e+00       2.901e-02          -0.006          -0.005           1.000       1.605e-02          0.1453
  34       4.836e+00      -5.378e+00       2.700e-02          -0.033          -0.027           0.999       1.465e-02          0.1373
  35       4.685e+00      -5.378e+00       2.127e-02          -0.057          -0.047           0.997       1.241e-02          0.0965
  36       4.560e+00      -5.378e+00       1.363e-02          -0.077          -0.063           0.995       9.436e-03          0.0097
  37       4.469e+00      -5.378e+00       6.383e-03          -0.090          -0.074           0.993       5.902e-03         -0.1473
  38       4.416e+00      -5.378e+00       1.571e-03          -0.097          -0.080           0.992       2.008e-03         -0.5259
Strip 4
  39       5.774e+00      -5.267e+00       3.508e-04           0.065           0.054           0.996       2.780e-03          0.0343
  40       5.742e+00      -5.267e+00       2.388e-03           0.062           0.051           0.997       8.176e-03          0.0566
  41       5.670e+00      -5.267e+00       6.763e-03           0.056           0.046           0.997       1.309e-02          0.0784
  42       5.561e+00      -5.267e+00       1.261e-02           0.048           0.039           0.998       1.724e-02          0.0971
  43       5.423e+00      -5.267e+00       1.878e-02           0.037           0.030           0.999       2.037e-02          0.1139
  44       5.262e+00      -5.267e+00       2.415e-02           0.024           0.020           1.000       2.233e-02          0.1293
  45       5.089e+00      -5.267e+00       2.778e-02           0.011           0.009           1.000       2.298e-02          0.1502
  46       4.913e+00      -5.267e+00       2.901e-02          -0.006          -0.005           1.000       2.232e-02          0.1744
  47       4.744e+00      -5.267e+00       2.700e-02          -0.033          -0.027           0.999       2.037e-02          0.1562
  48       4.594e+00      -5.267e+00       2.127e-02          -0.057          -0.047           0.997       1.725e-02          0.0999
  49       4.469e+00      -5.267e+00       1.363e-02          -0.077          -0.063           0.995       1.312e-02          0.0052
  50       4.378e+00      -5.267e+00       6.383e-03          -0.090          -0.074           0.993       8.206e-03         -0.1502
  51       4.325e+00      -5.267e+00       1.571e-03          -0.097          -0.080           0.992       2.792e-03         -0.5275
Strip 5
  52       5.653e+00      -5.119e+00       3.508e-04           0.065           0.054           0.996       3.542e-03          0.0400
  53       5.622e+00      -5.119e+00       2.388e-03           0.062           0.051           0.997       1.042e-02          0.0665
  54       5.549e+00      -5.119e+00       6.763e-03           0.056           0.046           0.997       1.668e-02          0.0926
  55       5.441e+00      -5.119e+00       1.261e-02           0.048           0.039           0.998       2.196e-02          0.1152
  56       5.302e+00      -5.119e+00       1.878e-02           0.037           0.030           0.999       2.595e-02          0.1351
  57       5.141e+00      -5.119e+00       2.415e-02           0.024           0.020           1.000       2.844e-02          0.1524
  58       4.968e+00      -5.119e+00       2.778e-02           0.011           0.009           1.000       2.928e-02          0.1726
  59       4.792e+00      -5.119e+00       2.901e-02          -0.006          -0.005           1.000       2.843e-02          0.1917
  60       4.624e+00      -5.119e+00       2.700e-02          -0.033          -0.027           0.999       2.595e-02          0.1654
  61       4.473e+00      -5.119e+00       2.127e-02          -0.057          -0.047           0.997       2.198e-02          0.1035
  62       4.348e+00      -5.119e+00       1.363e-02          -0.077          -0.063           0.995       1.671e-02          0.0078
  63       4.257e+00      -5.119e+00       6.383e-03          -0.090          -0.074           0.993       1.045e-02         -0.1458
  64       4.205e+00      -5.119e+00       1.571e-03          -0.097          -0.080           0.992       3.557e-03         -0.5169
Strip 6
  65       5.504e+00      -4.937e+00       3.508e-04           0.065           0.054           0.996       4.279e-03          0.0448
  66       5.472e+00      -4.937e+00       2.388e-03           0.062           0.051           0.997       1.259e-02          0.0747
  67       5.400e+00      -4.937e+00       6.763e-03           0.056           0.046           0.997       2.015e-02          0.1043
  68       5.291e+00      -4.937e+00       1.261e-02           0.048           0.039           0.998       2.653e-02          0.1296
  69       5.153e+00      -4.937e+00       1.878e-02           0.037           0.030           0.999       3.136e-02          0.1512
  70       4.992e+00      -4.937e+00       2.415e-02           0.024           0.020           1.000       3.436e-02          0.1684
  71       4.819e+00      -4.937e+00       2.778e-02           0.011           0.009           1.000       3.538e-02          0.1862
  72       4.643e+00      -4.937e+00       2.901e-02          -0.006          -0.005           1.000       3.435e-02          0.2014
  73       4.474e+00      -4.937e+00       2.700e-02          -0.033          -0.027           0.999       3.135e-02          0.1716
  74       4.324e+00      -4.937e+00       2.127e-02          -0.057          -0.047           0.997       2.655e-02          0.1080
  75       4.199e+00      -4.937e+00       1.363e-02          -0.077          -0.063           0.995       2.019e-02          0.0124
  76       4.108e+00      -4.937e+00       6.383e-03          -0.090          -0.074           0.993       1.263e-02         -0.1394
  77       4.055e+00      -4.937e+00       1.571e-03          -0.097          -0.080           0.992       4.298e-03         -0.5024
Strip 7
  78       5.327e+00      -4.721e+00       3.508e-04           0.065           0.054           0.996       4.988e-03          0.0483
  79       5.295e+00      -4.721e+00       2.388e-03           0.062           0.051           0.997       1.467e-02          0.0808
  80       5.223e+00      -4.721e+00       6.763e-03           0.056           0.046           0.997       2.348e-02          0.1127
  81       5.114e+00      -4.721e+00       1.261e-02           0.048           0.039           0.998       3.092e-02          0.1397
  82       4.976e+00      -4.721e+00       1.878e-02           0.037           0.030           0.999       3.655e-02          0.1617
  83       4.815e+00      -4.721e+00       2.415e-02           0.024           0.020           1.000       4.005e-02          0.1782
  84       4.642e+00      -4.721e+00       2.778e-02           0.011           0.009           1.000       4.123e-02          0.1943
  85       4.466e+00      -4.721e+00       2.901e-02          -0.006          -0.005           1.000       4.003e-02          0.2076
  86       4.298e+00      -4.721e+00       2.700e-02          -0.033          -0.027           0.999       3.654e-02          0.1765
  87       4.147e+00      -4.721e+00       2.127e-02          -0.057          -0.047           0.997       3.095e-02          0.1123
  88       4.022e+00      -4.721e+00       1.363e-02          -0.077          -0.063           0.995       2.354e-02          0.0170
  89       3.931e+00      -4.721e+00       6.383e-03          -0.090          -0.074           0.993       1.472e-02         -0.1332
  90       3.878e+00      -4.721e+00       1.571e-03          -0.097          -0.080           0.992       5.009e-03         -0.4884
Strip 8
  91       5.124e+00      -4.472e+00       3.508e-04           0.065           0.054           0.996       5.662e-03          0.0507
  92       5.092e+00      -4.472e+00       2.388e-03           0.062           0.051           0.997       1.665e-02          0.0847
  93       5.020e+00      -4.472e+00       6.763e-03           0.056           0.046           0.997       2.666e-02          0.1180
  94       4.911e+00      -4.472e+00       1.261e-02           0.048           0.039           0.998       3.510e-02          0.1458
  95       4.772e+00      -4.472e+00       1.878e-02           0.037           0.030           0.999       4.149e-02          0.1681
  96       4.612e+00      -4.472e+00       2.415e-02           0.024           0.020           1.000       4.547e-02          0.1841
  97       4.438e+00      -4.472e+00       2.778e-02           0.011           0.009           1.000       4.681e-02          0.1994
  98       4.263e+00      -4.472e+00       2.901e-02          -0.006          -0.005           1.000       4.544e-02          0.2118
  99       4.094e+00      -4.472e+00       2.700e-02          -0.033          -0.027           0.999       4.148e-02          0.1802
 100       3.944e+00      -4.472e+00       2.127e-02          -0.057          -0.047           0.997       3.513e-02          0.1158
 101       3.819e+00      -4.472e+00       1.363e-02          -0.077          -0.063           0.995       2.672e-02          0.0207
 102       3.728e+00      -4.472e+00       6.383e-03          -0.090          -0.074           0.993       1.671e-02         -0.1280
 103       3.675e+00      -4.472e+00       1.571e-03          -0.097          -0.080           0.992       5.687e-03         -0.4768
Strip 9
 104       4.896e+00      -4.193e+00       3.508e-04           0.065           0.054           0.996       6.297e-03          0.0520
 105       4.864e+00      -4.193e+00       2.388e-03           0.062           0.051           0.997       1.852e-02          0.0870
 106       4.792e+00      -4.193e+00       6.763e-03           0.056           0.046           0.997       2.965e-02          0.1211
 107       4.683e+00      -4.193e+00       1.261e-02           0.048           0.039           0.998       3.904e-02          0.1495
 108       4.544e+00      -4.193e+00       1.878e-02           0.037           0.030           0.999       4.615e-02          0.1719
 109       4.384e+00      -4.193e+00       2.415e-02           0.024           0.020           1.000       5.057e-02          0.1877
 110       4.210e+00      -4.193e+00       2.778e-02           0.011           0.009           1.000       5.206e-02          0.2026
 111       4.034e+00      -4.193e+00       2.901e-02          -0.006          -0.005           1.000       5.055e-02          0.2147
 112       3.866e+00      -4.193e+00       2.700e-02          -0.033          -0.027           0.999       4.613e-02          0.1828
 113       3.715e+00      -4.193e+00       2.127e-02          -0.057          -0.047           0.997       3.907e-02          0.1183
 114       3.591e+00      -4.193e+00       1.363e-02          -0.077          -0.063           0.995       2.972e-02          0.0234
 115       3.499e+00      -4.193e+00       6.383e-03          -0.090          -0.074           0.993       1.859e-02         -0.1243
 116       3.447e+00      -4.193e+00       1.571e-03          -0.097          -0.080           0.992       6.325e-03         -0.4686
Strip 10
 117       4.644e+00      -3.886e+00       3.508e-04           0.065           0.054           0.996       6.890e-03          0.0528
 118       4.612e+00      -3.886e+00       2.388e-03           0.062           0.051           0.997       2.026e-02          0.0884
 119       4.540e+00      -3.886e+00       6.763e-03           0.056           0.046           0.997       3.244e-02          0.1230
 120       4.431e+00      -3.886e+00       1.261e-02           0.048           0.039           0.998       4.271e-02          0.1516
 121       4.293e+00      -3.886e+00       1.878e-02           0.037           0.030           0.999       5.049e-02          0.1741
 122       4.132e+00      -3.886e+00       2.415e-02           0.024           0.020           1.000       5.533e-02          0.1899
 123       3.959e+00      -3.886e+00       2.778e-02           0.011           0.009           1.000       5.696e-02          0.2047
 124       3.783e+00      -3.886e+00       2.901e-02          -0.006          -0.005           1.000       5.530e-02          0.2166
 125       3.614e+00      -3.886e+00       2.700e-02          -0.033          -0.027           0.999       5.048e-02          0.1845
 126       3.464e+00      -3.886e+00       2.127e-02          -0.057          -0.047           0.997       4.275e-02          0.1198
 127       3.339e+00      -3.886e+00       1.363e-02          -0.077          -0.063           0.995       3.251e-02          0.0250
 128       3.248e+00      -3.886e+00       6.383e-03          -0.090          -0.074           0.993       2.034e-02         -0.1222
 129       3.195e+00      -3.886e+00       1.571e-03          -0.097          -0.080           0.992       6.920e-03         -0.4639
Strip 11
 130       4.371e+00      -3.552e+00       3.508e-04           0.065           0.054           0.996       7.435e-03          0.0533
 131       4.339e+00      -3.552e+00       2.388e-03           0.062           0.051           0.997       2.187e-02          0.0892
 132       4.267e+00      -3.552e+00       6.763e-03           0.056           0.046           0.997       3.501e-02          0.1241
 133       4.158e+00      -3.552e+00       1.261e-02           0.048           0.039           0.998       4.609e-02          0.1529
 134       4.019e+00      -3.552e+00       1.878e-02           0.037           0.030           0.999       5.448e-02          0.1755
 135       3.858e+00      -3.552e+00       2.415e-02           0.024           0.020           1.000       5.971e-02          0.1912
 136       3.685e+00      -3.552e+00       2.778e-02           0.011           0.009           1.000       6.147e-02          0.2059
 137       3.509e+00      -3.552e+00       2.901e-02          -0.006          -0.005           1.000       5.968e-02          0.2176
 138       3.341e+00      -3.552e+00       2.700e-02          -0.033          -0.027           0.999       5.447e-02          0.1853
 139       3.190e+00      -3.552e+00       2.127e-02          -0.057          -0.047           0.997       4.613e-02          0.1205
 140       3.066e+00      -3.552e+00       1.363e-02          -0.077          -0.063           0.995       3.509e-02          0.0255
 141       2.974e+00      -3.552e+00       6.383e-03          -0.090          -0.074           0.993       2.195e-02         -0.1217
 142       2.922e+00      -3.552e+00       1.571e-03          -0.097          -0.080           0.992       7.468e-03         -0.4630
Strip 12
 143       4.077e+00      -3.193e+00       3.508e-04           0.065           0.054           0.996       7.930e-03          0.0536
 144       4.046e+00      -3.193e+00       2.388e-03           0.062           0.051           0.997       2.332e-02          0.0896
 145       3.973e+00      -3.193e+00       6.763e-03           0.056           0.046           0.997       3.734e-02          0.1247
 146       3.865e+00      -3.193e+00       1.261e-02           0.048           0.039           0.998       4.916e-02          0.1536
 147       3.726e+00      -3.193e+00       1.878e-02           0.037           0.030           0.999       5.811e-02          0.1762
 148       3.565e+00      -3.193e+00       2.415e-02           0.024           0.020           1.000       6.368e-02          0.1919
 149       3.392e+00      -3.193e+00       2.778e-02           0.011           0.009           1.000       6.556e-02          0.2065
 150       3.216e+00      -3.193e+00       2.901e-02          -0.006          -0.005           1.000       6.365e-02          0.2180
 151       3.048e+00      -3.193e+00       2.700e-02          -0.033          -0.027           0.999       5.809e-02          0.1855
 152       2.897e+00      -3.193e+00       2.127e-02          -0.057          -0.047           0.997       4.920e-02          0.1204
 153       2.772e+00      -3.193e+00       1.363e-02          -0.077          -0.063           0.995       3.742e-02          0.0250
 154       2.681e+00      -3.193e+00       6.383e-03          -0.090          -0.074           0.993       2.341e-02         -0.1227
 155       2.629e+00      -3.193e+00       1.571e-03          -0.097          -0.080           0.992       7.965e-03         -0.4658
Strip 13
 156       3.766e+00      -2.813e+00       3.508e-04           0.065           0.054           0.996       8.370e-03          0.0537
 157       3.734e+00      -2.813e+00       2.388e-03           0.062           0.051           0.997       2.462e-02          0.0899
 158       3.662e+00      -2.813e+00       6.763e-03           0.056           0.046           0.997       3.941e-02          0.1250
 159       3.554e+00      -2.813e+00       1.261e-02           0.048           0.039           0.998       5.189e-02          0.1540
 160       3.415e+00      -2.813e+00       1.878e-02           0.037           0.030           0.999       6.134e-02          0.1765
 161       3.254e+00      -2.813e+00       2.415e-02           0.024           0.020           1.000       6.722e-02          0.1921
 162       3.081e+00      -2.813e+00       2.778e-02           0.011           0.009           1.000       6.920e-02          0.2065
 163       2.905e+00      -2.813e+00       2.901e-02          -0.006          -0.005           1.000       6.718e-02          0.2178
 164       2.737e+00      -2.813e+00       2.700e-02          -0.033          -0.027           0.999       6.132e-02          0.1850
 165       2.586e+00      -2.813e+00       2.127e-02          -0.057          -0.047           0.997       5.193e-02          0.1195
 166       2.461e+00      -2.813e+00       1.363e-02          -0.077          -0.063           0.995       3.950e-02          0.0235
 167       2.370e+00      -2.813e+00       6.383e-03          -0.090          -0.074           0.993       2.471e-02         -0.1256
 168       2.318e+00      -2.813e+00       1.571e-03          -0.097          -0.080           0.992       8.407e-03         -0.4728
Strip 14
 169       3.439e+00      -2.414e+00       3.508e-04           0.065           0.054           0.996       8.754e-03          0.0538
 170       3.408e+00      -2.414e+00       2.388e-03           0.062           0.051           0.997       2.574e-02          0.0899
 171       3.335e+00      -2.414e+00       6.763e-03           0.056           0.046           0.997       4.122e-02          0.1251
 172       3.227e+00      -2.414e+00       1.261e-02           0.048           0.039           0.998       5.427e-02          0.1540
 173       3.088e+00      -2.414e+00       1.878e-02           0.037           0.030           0.999       6.415e-02          0.1765
 174       2.927e+00      -2.414e+00       2.415e-02           0.024           0.020           1.000       7.029e-02          0.1919
 175       2.754e+00      -2.414e+00       2.778e-02           0.011           0.009           1.000       7.237e-02          0.2061
 176       2.578e+00      -2.414e+00       2.901e-02          -0.006          -0.005           1.000       7.026e-02          0.2171
 177       2.410e+00      -2.414e+00       2.700e-02          -0.033          -0.027           0.999       6.413e-02          0.1838
 178       2.259e+00      -2.414e+00       2.127e-02          -0.057          -0.047           0.997       5.431e-02          0.1177
 179       2.134e+00      -2.414e+00       1.363e-02          -0.077          -0.063           0.995       4.131e-02          0.0206
 180       2.043e+00      -2.414e+00       6.383e-03          -0.090          -0.074           0.993       2.584e-02         -0.1304
 181       1.991e+00      -2.414e+00       1.571e-03          -0.097          -0.080           0.992       8.792e-03         -0.4847
Strip 15
 182       3.099e+00      -1.998e+00       3.508e-04           0.065           0.054           0.996       9.077e-03          0.0538
 183       3.067e+00      -1.998e+00       2.388e-03           0.062           0.051           0.997       2.670e-02          0.0899
 184       2.995e+00      -1.998e+00       6.763e-03           0.056           0.046           0.997       4.274e-02          0.1250
 185       2.886e+00      -1.998e+00       1.261e-02           0.048           0.039           0.998       5.627e-02          0.1539
 186       2.748e+00      -1.998e+00       1.878e-02           0.037           0.030           0.999       6.652e-02          0.1762
 187       2.587e+00      -1.998e+00       2.415e-02           0.024           0.020           1.000       7.289e-02          0.1914
 188       2.414e+00      -1.998e+00       2.778e-02           0.011           0.009           1.000       7.504e-02          0.2052
 189       2.238e+00      -1.998e+00       2.901e-02          -0.006          -0.005           1.000       7.286e-02          0.2157
 190       2.070e+00      -1.998e+00       2.700e-02          -0.033          -0.027           0.999       6.650e-02          0.1818
 191       1.919e+00      -1.998e+00       2.127e-02          -0.057          -0.047           0.997       5.632e-02          0.1148
 192       1.794e+00      -1.998e+00       1.363e-02          -0.077          -0.063           0.995       4.284e-02          0.0163
 193       1.703e+00      -1.998e+00       6.383e-03          -0.090          -0.074           0.993       2.679e-02         -0.1379
 194       1.650e+00      -1.998e+00       1.571e-03          -0.097          -0.080           0.992       9.117e-03         -0.5028
Strip 16
 195       2.748e+00      -1.568e+00       3.508e-04           0.065           0.054           0.996       9.339e-03          0.0537
 196       2.716e+00      -1.568e+00       2.388e-03           0.062           0.051           0.997       2.746e-02          0.0898
 197       2.644e+00      -1.568e+00       6.763e-03           0.056           0.046           0.997       4.397e-02          0.1248
 198       2.535e+00      -1.568e+00       1.261e-02           0.048           0.039           0.998       5.789e-02          0.1536
 199       2.396e+00      -1.568e+00       1.878e-02           0.037           0.030           0.999       6.843e-02          0.1756
 200       2.236e+00      -1.568e+00       2.415e-02           0.024           0.020           1.000       7.499e-02          0.1905
 201       2.062e+00      -1.568e+00       2.778e-02           0.011           0.009           1.000       7.721e-02          0.2039
 202       1.886e+00      -1.568e+00       2.901e-02          -0.006          -0.005           1.000       7.496e-02          0.2137
 203       1.718e+00      -1.568e+00       2.700e-02          -0.033          -0.027           0.999       6.842e-02          0.1788
 204       1.567e+00      -1.568e+00       2.127e-02          -0.057          -0.047           0.997       5.794e-02          0.1104
 205       1.443e+00      -1.568e+00       1.363e-02          -0.077          -0.063           0.995       4.407e-02          0.0097
 206       1.351e+00      -1.568e+00       6.383e-03          -0.090          -0.074           0.993       2.756e-02         -0.1491
 207       1.299e+00      -1.568e+00       1.571e-03          -0.097          -0.080           0.992       9.380e-03         -0.5302
Strip 17
 208       2.387e+00      -1.128e+00       3.508e-04           0.065           0.054           0.996       9.536e-03          0.0537
 209       2.356e+00      -1.128e+00       2.388e-03           0.062           0.051           0.997       2.805e-02          0.0898
 210       2.283e+00      -1.128e+00       6.763e-03           0.056           0.046           0.997       4.490e-02          0.1247
 211       2.175e+00      -1.128e+00       1.261e-02           0.048           0.039           0.998       5.912e-02          0.1533
 212       2.036e+00      -1.128e+00       1.878e-02           0.037           0.030           0.999       6.988e-02          0.1752
 213       1.875e+00      -1.128e+00       2.415e-02           0.024           0.020           1.000       7.658e-02          0.1895
 214       1.702e+00      -1.128e+00       2.778e-02           0.011           0.009           1.000       7.884e-02          0.2022
 215       1.526e+00      -1.128e+00       2.901e-02          -0.006          -0.005           1.000       7.654e-02          0.2109
 216       1.358e+00      -1.128e+00       2.700e-02          -0.033          -0.027           0.999       6.986e-02          0.1744
 217       1.207e+00      -1.128e+00       2.127e-02          -0.057          -0.047           0.997       5.917e-02          0.1037
 218       1.082e+00      -1.128e+00       1.363e-02          -0.077          -0.063           0.995       4.500e-02         -0.0005
 219       9.912e-01      -1.128e+00       6.383e-03          -0.090          -0.074           0.993       2.815e-02         -0.1666
 220       9.387e-01      -1.128e+00       1.571e-03          -0.097          -0.080           0.992       9.578e-03         -0.5726
Strip 18
 221       2.021e+00      -6.797e-01       3.508e-04           0.065           0.054           0.996       9.669e-03          0.0541
 222       1.989e+00      -6.797e-01       2.388e-03           0.062           0.051           0.997       2.844e-02          0.0904
 223       1.917e+00      -6.797e-01       6.763e-03           0.056           0.046           0.997       4.552e-02          0.1255
 224       1.808e+00      -6.797e-01       1.261e-02           0.048           0.039           0.998       5.994e-02          0.1542
 225       1.669e+00      -6.797e-01       1.878e-02           0.037           0.030           0.999       7.085e-02          0.1757
 226       1.509e+00      -6.797e-01       2.415e-02           0.024           0.020           1.000       7.764e-02          0.1893
 227       1.335e+00      -6.797e-01       2.778e-02           0.011           0.009           1.000       7.994e-02          0.2003
 228       1.160e+00      -6.797e-01       2.901e-02          -0.006          -0.005           1.000       7.761e-02          0.2066
 229       9.913e-01      -6.797e-01       2.700e-02          -0.033          -0.027           0.999       7.083e-02          0.1670
 230       8.405e-01      -6.797e-01       2.127e-02          -0.057          -0.047           0.997       5.999e-02          0.0924
 231       7.158e-01      -6.797e-01       1.363e-02          -0.077          -0.063           0.995       4.563e-02         -0.0174
 232       6.246e-01      -6.797e-01       6.383e-03          -0.090          -0.074           0.993       2.854e-02         -0.1950
 233       5.722e-01      -6.797e-01       1.571e-03          -0.097          -0.080           0.992       9.711e-03         -0.6410
Strip 19
 234       1.650e+00      -2.271e-01       3.508e-04           0.065           0.054           0.996       9.735e-03          0.0572
 235       1.619e+00      -2.271e-01       2.388e-03           0.062           0.051           0.997       2.863e-02          0.0957
 236       1.546e+00      -2.271e-01       6.763e-03           0.056           0.046           0.997       4.584e-02          0.1327
 237       1.438e+00      -2.271e-01       1.261e-02           0.048           0.039           0.998       6.035e-02          0.1619
 238       1.299e+00      -2.271e-01       1.878e-02           0.037           0.030           0.999       7.134e-02          0.1816
 239       1.138e+00      -2.271e-01       2.415e-02           0.024           0.020           1.000       7.818e-02          0.1910
 240       9.651e-01      -2.271e-01       2.778e-02           0.011           0.009           1.000       8.049e-02          0.1962
 241       7.892e-01      -2.271e-01       2.901e-02          -0.006          -0.005           1.000       7.814e-02          0.1960
 242       6.209e-01      -2.271e-01       2.700e-02          -0.033          -0.027           0.999       7.132e-02          0.1501
 243       4.701e-01      -2.271e-01       2.127e-02          -0.057          -0.047           0.997       6.040e-02          0.0697
 244       3.455e-01      -2.271e-01       1.363e-02          -0.077          -0.063           0.995       4.594e-02         -0.0465
 245       2.543e-01      -2.271e-01       6.383e-03          -0.090          -0.074           0.993       2.873e-02         -0.2375
 246       2.018e-01      -2.271e-01       1.571e-03          -0.097          -0.080           0.992       9.778e-03         -0.7361
Strip 20
 247       1.650e+00       2.271e-01       3.508e-04           0.065          -0.054           0.996       9.735e-03          0.0572
 248       1.619e+00       2.271e-01       2.388e-03           0.062          -0.051           0.997       2.863e-02          0.0957
 249       1.546e+00       2.271e-01       6.763e-03           0.056          -0.046           0.997       4.584e-02          0.1327
 250       1.438e+00       2.271e-01       1.261e-02           0.048          -0.039           0.998       6.035e-02          0.1619
 251       1.299e+00       2.271e-01       1.878e-02           0.037          -0.030           0.999       7.134e-02          0.1816
 252       1.138e+00       2.271e-01       2.415e-02           0.024          -0.020           1.000       7.818e-02          0.1910
 253       9.651e-01       2.271e-01       2.778e-02           0.011          -0.009           1.000       8.049e-02          0.1962
 254       7.892e-01       2.271e-01       2.901e-02          -0.006           0.005           1.000       7.814e-02          0.1960
 255       6.209e-01       2.271e-01       2.700e-02          -0.033           0.027           0.999       7.132e-02          0.1501
 256       4.701e-01       2.271e-01       2.127e-02          -0.057           0.047           0.997       6.040e-02          0.0697
 257       3.455e-01       2.271e-01       1.363e-02          -0.077           0.063           0.995       4.594e-02         -0.0465
 258       2.543e-01       2.271e-01       6.383e-03          -0.090           0.074           0.993       2.873e-02         -0.2375
 259       2.018e-01       2.271e-01       1.571e-03          -0.097           0.080           0.992       9.778e-03         -0.7361
Strip 21
 260       2.021e+00       6.797e-01       3.508e-04           0.065          -0.054           0.996       9.669e-03          0.0541
 261       1.989e+00       6.797e-01       2.388e-03           0.062          -0.051           0.997       2.844e-02          0.0904
 262       1.917e+00       6.797e-01       6.763e-03           0.056          -0.046           0.997       4.552e-02          0.1255
 263       1.808e+00       6.797e-01       1.261e-02           0.048          -0.039           0.998       5.994e-02          0.1542
 264       1.669e+00       6.797e-01       1.878e-02           0.037          -0.030           0.999       7.085e-02          0.1757
 265       1.509e+00       6.797e-01       2.415e-02           0.024          -0.020           1.000       7.764e-02          0.1893
 266       1.335e+00       6.797e-01       2.778e-02           0.011          -0.009           1.000       7.994e-02          0.2003
 267       1.160e+00       6.797e-01       2.901e-02          -0.006           0.005           1.000       7.761e-02          0.2066
 268       9.913e-01       6.797e-01       2.700e-02          -0.033           0.027           0.999       7.083e-02          0.1670
 269       8.405e-01       6.797e-01       2.127e-02          -0.057           0.047           0.997       5.999e-02          0.0924
 270       7.158e-01       6.797e-01       1.363e-02          -0.077           0.063           0.995       4.563e-02         -0.0174
 271       6.246e-01       6.797e-01       6.383e-03          -0.090           0.074           0.993       2.854e-02         -0.1950
 272       5.722e-01       6.797e-01       1.571e-03          -0.097           0.080           0.992       9.711e-03         -0.6410
Strip 22
 273       2.387e+00       1.128e+00       3.508e-04           0.065          -0.054           0.996       9.536e-03          0.0537
 274       2.356e+00       1.128e+00       2.388e-03           0.062          -0.051           0.997       2.805e-02          0.0898
 275       2.283e+00       1.128e+00       6.763e-03           0.056          -0.046           0.997       4.490e-02          0.1247
 276       2.175e+00       1.128e+00       1.261e-02           0.048          -0.039           0.998       5.912e-02          0.1533
 277       2.036e+00       1.128e+00       1.878e-02           0.037          -0.030           0.999       6.988e-02          0.1752
 278       1.875e+00       1.128e+00       2.415e-02           0.024          -0.020           1.000       7.658e-02          0.1895
 279       1.702e+00       1.128e+00       2.778e-02           0.011          -0.009           1.000       7.884e-02          0.2022
 280       1.526e+00       1.128e+00       2.901e-02          -0.006           0.005           1.000       7.654e-02          0.2109
 281       1.358e+00       1.128e+00       2.700e-02          -0.033           0.027           0.999       6.986e-02          0.1744
 282       1.207e+00       1.128e+00       2.127e-02          -0.057           0.047           0.997       5.917e-02          0.1037
 283       1.082e+00       1.128e+00       1.363e-02          -0.077           0.063           0.995       4.500e-02         -0.0005
 284       9.912e-01       1.128e+00       6.383e-03          -0.090           0.074           0.993       2.815e-02         -0.1666
 285       9.387e-01       1.128e+00       1.571e-03          -0.097           0.080           0.992       9.578e-03         -0.5726
Strip 23
 286       2.748e+00       1.568e+00       3.508e-04           0.065          -0.054           0.996       9.339e-03          0.0537
 287       2.716e+00       1.568e+00       2.388e-03           0.062          -0.051           0.997       2.746e-02          0.0898
 288       2.644e+00       1.568e+00       6.763e-03           0.056          -0.046           0.997       4.397e-02          0.1248
 289       2.535e+00       1.568e+00       1.261e-02           0.048          -0.039           0.998       5.789e-02          0.1536
 290       2.396e+00       1.568e+00       1.878e-02           0.037          -0.030           0.999       6.843e-02          0.1756
 291       2.236e+00       1.568e+00       2.415e-02           0.024          -0.020           1.000       7.499e-02          0.1905
 292       2.062e+00       1.568e+00       2.778e-02           0.011          -0.009           1.000       7.721e-02          0.2039
 293       1.886e+00       1.568e+00       2.901e-02          -0.006           0.005           1.000       7.496e-02          0.2137
 294       1.718e+00       1.568e+00       2.700e-02          -0.033           0.027           0.999       6.842e-02          0.1788
 295       1.567e+00       1.568e+00       2.127e-02          -0.057           0.047           0.997       5.794e-02          0.1104
 296       1.443e+00       1.568e+00       1.363e-02          -0.077           0.063           0.995       4.407e-02          0.0097
 297       1.351e+00       1.568e+00       6.383e-03          -0.090           0.074           0.993       2.756e-02         -0.1491
 298       1.299e+00       1.568e+00       1.571e-03          -0.097           0.080           0.992       9.380e-03         -0.5302
Strip 24
 299       3.099e+00       1.998e+00       3.508e-04           0.065          -0.054           0.996       9.077e-03          0.0538
 300       3.067e+00       1.998e+00       2.388e-03           0.062          -0.051           0.997       2.670e-02          0.0899
 301       2.995e+00       1.998e+00       6.763e-03           0.056          -0.046           0.997       4.274e-02          0.1250
 302       2.886e+00       1.998e+00       1.261e-02           0.048          -0.039           0.998       5.627e-02          0.1539
 303       2.748e+00       1.998e+00       1.878e-02           0.037          -0.030           0.999       6.652e-02          0.1762
 304       2.587e+00       1.998e+00       2.415e-02           0.024          -0.020           1.000       7.289e-02          0.1914
 305       2.414e+00       1.998e+00       2.778e-02           0.011          -0.009           1.000       7.504e-02          0.2052
 306       2.238e+00       1.998e+00       2.901e-02          -0.006           0.005           1.000       7.286e-02          0.2157
 307       2.070e+00       1.998e+00       2.700e-02          -0.033           0.027           0.999       6.650e-02          0.1818
 308       1.919e+00       1.998e+00       2.127e-02          -0.057           0.047           0.997       5.632e-02          0.1148
 309       1.794e+00       1.998e+00       1.363e-02          -0.077           0.063           0.995       4.284e-02          0.0163
 310       1.703e+00       1.998e+00       6.383e-03          -0.090           0.074           0.993       2.679e-02         -0.1379
 311       1.650e+00       1.998e+00       1.571e-03          -0.097           0.080           0.992       9.117e-03         -0.5028
Strip 25
 312       3.439e+00       2.414e+00       3.508e-04           0.065          -0.054           0.996       8.754e-03          0.0538
 313       3.408e+00       2.414e+00       2.388e-03           0.062          -0.051           0.997       2.574e-02          0.0899
 314       3.335e+00       2.414e+00       6.763e-03           0.056          -0.046           0.997       4.122e-02          0.1251
 315       3.227e+00       2.414e+00       1.261e-02           0.048          -0.039           0.998       5.427e-02          0.1540
 316       3.088e+00       2.414e+00       1.878e-02           0.037          -0.030           0.999       6.415e-02          0.1765
 317       2.927e+00       2.414e+00       2.415e-02           0.024          -0.020           1.000       7.029e-02          0.1919
 318       2.754e+00       2.414e+00       2.778e-02           0.011          -0.009           1.000       7.237e-02          0.2061
 319       2.578e+00       2.414e+00       2.901e-02          -0.006           0.005           1.000       7.026e-02          0.2171
 320       2.410e+00       2.414e+00       2.700e-02          -0.033           0.027           0.999       6.413e-02          0.1838
 321       2.259e+00       2.414e+00       2.127e-02          -0.057           0.047           0.997       5.431e-02          0.1177
 322       2.134e+00       2.414e+00       1.363e-02          -0.077           0.063           0.995       4.131e-02          0.0206
 323       2.043e+00       2.414e+00       6.383e-03          -0.090           0.074           0.993       2.584e-02         -0.1304
 324       1.991e+00       2.414e+00       1.571e-03          -0.097           0.080           0.992       8.792e-03         -0.4847
Strip 26
 325       3.766e+00       2.813e+00       3.508e-04           0.065          -0.054           0.996       8.370e-03          0.0537
 326       3.734e+00       2.813e+00       2.388e-03           0.062          -0.051           0.997       2.462e-02          0.0899
 327       3.662e+00       2.813e+00       6.763e-03           0.056          -0.046           0.997       3.941e-02          0.1250
 328       3.554e+00       2.813e+00       1.261e-02           0.048          -0.039           0.998       5.189e-02          0.1540
 329       3.415e+00       2.813e+00       1.878e-02           0.037          -0.030           0.999       6.134e-02          0.1765
 330       3.254e+00       2.813e+00       2.415e-02           0.024          -0.020           1.000       6.722e-02          0.1921
 331       3.081e+00       2.813e+00       2.778e-02           0.011          -0.009           1.000       6.920e-02          0.2065
 332       2.905e+00       2.813e+00       2.901e-02          -0.006           0.005           1.000       6.718e-02          0.2178
 333       2.737e+00       2.813e+00       2.700e-02          -0.033           0.027           0.999       6.132e-02          0.1850
 334       2.586e+00       2.813e+00       2.127e-02          -0.057           0.047           0.997       5.193e-02          0.1195
 335       2.461e+00       2.813e+00       1.363e-02          -0.077           0.063           0.995       3.950e-02          0.0235
 336       2.370e+00       2.813e+00       6.383e-03          -0.090           0.074           0.993       2.471e-02         -0.1256
 337       2.318e+00       2.813e+00       1.571e-03          -0.097           0.080           0.992       8.407e-03         -0.4728
Strip 27
 338       4.077e+00       3.193e+00       3.508e-04           0.065          -0.054           0.996       7.930e-03          0.0536
 339       4.046e+00       3.193e+00       2.388e-03           0.062          -0.051           0.997       2.332e-02          0.0896
 340       3.973e+00       3.193e+00       6.763e-03           0.056          -0.046           0.997       3.734e-02          0.1247
 341       3.865e+00       3.193e+00       1.261e-02           0.048          -0.039           0.998       4.916e-02          0.1536
 342       3.726e+00       3.193e+00       1.878e-02           0.037          -0.030           0.999       5.811e-02          0.1762
 343       3.565e+00       3.193e+00       2.415e-02           0.024          -0.020           1.000       6.368e-02          0.1919
 344       3.392e+00       3.193e+00       2.778e-02           0.011          -0.009           1.000       6.556e-02          0.2065
 345       3.216e+00       3.193e+00       2.901e-02          -0.006           0.005           1.000       6.365e-02          0.2180
 346       3.048e+00       3.193e+00       2.700e-02          -0.033           0.027           0.999       5.809e-02          0.1855
 347       2.897e+00       3.193e+00       2.127e-02          -0.057           0.047           0.997       4.920e-02          0.1204
 348       2.772e+00       3.193e+00       1.363e-02          -0.077           0.063           0.995       3.742e-02          0.0250
 349       2.681e+00       3.193e+00       6.383e-03          -0.090           0.074           0.993       2.341e-02         -0.1227
 350       2.629e+00       3.193e+00       1.571e-03          -0.097           0.080           0.992       7.965e-03         -0.4658
Strip 28
 351       4.371e+00       3.552e+00       3.508e-04           0.065          -0.054           0.996       7.435e-03          0.0533
 352       4.339e+00       3.552e+00       2.388e-03           0.062          -0.051           0.997       2.187e-02          0.0892
 353       4.267e+00       3.552e+00       6.763e-03           0.056          -0.046           0.997       3.501e-02          0.1241
 354       4.158e+00       3.552e+00       1.261e-02           0.048          -0.039           0.998       4.609e-02          0.1529
 355       4.019e+00       3.552e+00       1.878e-02           0.037          -0.030           0.999       5.448e-02          0.1755
 356       3.858e+00       3.552e+00       2.415e-02           0.024          -0.020           1.000       5.971e-02          0.1912
 357       3.685e+00       3.552e+00       2.778e-02           0.011          -0.009           1.000       6.147e-02          0.2059
 358       3.509e+00       3.552e+00       2.901e-02          -0.006           0.005           1.000       5.968e-02          0.2176
 359       3.341e+00       3.552e+00       2.700e-02          -0.033           0.027           0.999       5.447e-02          0.1853
 360       3.190e+00       3.552e+00       2.127e-02          -0.057           0.047           0.997       4.613e-02          0.1205
 361       3.066e+00       3.552e+00       1.363e-02          -0.077           0.063           0.995       3.509e-02          0.0255
 362       2.974e+00       3.552e+00       6.383e-03          -0.090           0.074           0.993       2.195e-02         -0.1217
 363       2.922e+00       3.552e+00       1.571e-03          -0.097           0.080           0.992       7.468e-03         -0.4630
Strip 29
 364       4.644e+00       3.886e+00       3.508e-04           0.065          -0.054           0.996       6.890e-03          0.0528
 365       4.612e+00       3.886e+00       2.388e-03           0.062          -0.051           0.997       2.026e-02          0.0884
 366       4.540e+00       3.886e+00       6.763e-03           0.056          -0.046           0.997       3.244e-02          0.1230
 367       4.431e+00       3.886e+00       1.261e-02           0.048          -0.039           0.998       4.271e-02          0.1516
 368       4.293e+00       3.886e+00       1.878e-02           0.037          -0.030           0.999       5.049e-02          0.1741
 369       4.132e+00       3.886e+00       2.415e-02           0.024          -0.020           1.000       5.533e-02          0.1899
 370       3.959e+00       3.886e+00       2.778e-02           0.011          -0.009           1.000       5.696e-02          0.2047
 371       3.783e+00       3.886e+00       2.901e-02          -0.006           0.005           1.000       5.530e-02          0.2166
 372       3.614e+00       3.886e+00       2.700e-02          -0.033           0.027           0.999       5.048e-02          0.1845
 373       3.464e+00       3.886e+00       2.127e-02          -0.057           0.047           0.997       4.275e-02          0.1198
 374       3.339e+00       3.886e+00       1.363e-02          -0.077           0.063           0.995       3.251e-02          0.0250
 375       3.248e+00       3.886e+00       6.383e-03          -0.090           0.074           0.993       2.034e-02         -0.1222
 376       3.195e+00       3.886e+00       1.571e-03          -0.097           0.080           0.992       6.920e-03         -0.4639
Strip 30
 377       4.896e+00       4.193e+00       3.508e-04           0.065          -0.054           0.996       6.297e-03          0.0520
 378       4.864e+00       4.193e+00       2.388e-03           0.062          -0.051           0.997       1.852e-02          0.0870
 379       4.792e+00       4.193e+00       6.763e-03           0.056          -0.046           0.997       2.965e-02          0.1211
 380       4.683e+00       4.193e+00       1.261e-02           0.048          -0.039           0.998       3.904e-02          0.1495
 381       4.544e+00       4.193e+00       1.878e-02           0.037          -0.030           0.999       4.615e-02          0.1719
 382       4.384e+00       4.193e+00       2.415e-02           0.024          -0.020           1.000       5.057e-02          0.1877
 383       4.210e+00       4.193e+00       2.778e-02           0.011          -0.009           1.000       5.206e-02          0.2026
 384       4.034e+00       4.193e+00       2.901e-02          -0.006           0.005           1.000       5.055e-02          0.2147
 385       3.866e+00       4.193e+00       2.700e-02          -0.033           0.027           0.999       4.613e-02          0.1828
 386       3.715e+00       4.193e+00       2.127e-02          -0.057           0.047           0.997       3.907e-02          0.1183
 387       3.591e+00       4.193e+00       1.363e-02          -0.077           0.063           0.995       2.972e-02          0.0234
 388       3.499e+00       4.193e+00       6.383e-03          -0.090           0.074           0.993       1.859e-02         -0.1243
 389       3.447e+00       4.193e+00       1.571e-03          -0.097           0.080           0.992       6.325e-03         -0.4686
Strip 31
 390       5.124e+00       4.472e+00       3.508e-04           0.065          -0.054           0.996       5.662e-03          0.0507
 391       5.092e+00       4.472e+00       2.388e-03           0.062          -0.051           0.997       1.665e-02          0.0847
 392       5.020e+00       4.472e+00       6.763e-03           0.056          -0.046           0.997       2.666e-02          0.1180
 393       4.911e+00       4.472e+00       1.261e-02           0.048          -0.039           0.998       3.510e-02          0.1458
 394       4.772e+00       4.472e+00       1.878e-02           0.037          -0.030           0.999       4.149e-02          0.1681
 395       4.612e+00       4.472e+00       2.415e-02           0.024          -0.020           1.000       4.547e-02          0.1841
 396       4.438e+00       4.472e+00       2.778e-02           0.011          -0.009           1.000       4.681e-02          0.1994
 397       4.263e+00       4.472e+00       2.901e-02          -0.006           0.005           1.000       4.544e-02          0.2118
 398       4.094e+00       4.472e+00       2.700e-02          -0.033           0.027           0.999       4.148e-02          0.1802
 399       3.944e+00       4.472e+00       2.127e-02          -0.057           0.047           0.997       3.513e-02          0.1158
 400       3.819e+00       4.472e+00       1.363e-02          -0.077           0.063           0.995       2.672e-02          0.0207
 401       3.728e+00       4.472e+00       6.383e-03          -0.090           0.074           0.993       1.671e-02         -0.1280
 402       3.675e+00       4.472e+00       1.571e-03          -0.097           0.080           0.992       5.687e-03         -0.4768
Strip 32
 403       5.327e+00       4.721e+00       3.508e-04           0.065          -0.054           0.996       4.988e-03          0.0483
 404       5.295e+00       4.721e+00       2.388e-03           0.062          -0.051           0.997       1.467e-02          0.0808
 405       5.223e+00       4.721e+00       6.763e-03           0.056          -0.046           0.997       2.348e-02          0.1127
 406       5.114e+00       4.721e+00       1.261e-02           0.048          -0.039           0.998       3.092e-02          0.1397
 407       4.976e+00       4.721e+00       1.878e-02           0.037          -0.030           0.999       3.655e-02          0.1617
 408       4.815e+00       4.721e+00       2.415e-02           0.024          -0.020           1.000       4.005e-02          0.1782
 409       4.642e+00       4.721e+00       2.778e-02           0.011          -0.009           1.000       4.123e-02          0.1943
 410       4.466e+00       4.721e+00       2.901e-02          -0.006           0.005           1.000       4.003e-02          0.2076
 411       4.298e+00       4.721e+00       2.700e-02          -0.033           0.027           0.999       3.654e-02          0.1765
 412       4.147e+00       4.721e+00       2.127e-02          -0.057           0.047           0.997       3.095e-02          0.1123
 413       4.022e+00       4.721e+00       1.363e-02          -0.077           0.063           0.995       2.354e-02          0.0170
 414       3.931e+00       4.721e+00       6.383e-03          -0.090           0.074           0.993       1.472e-02         -0.1332
 415       3.878e+00       4.721e+00       1.571e-03          -0.097           0.080           0.992       5.009e-03         -0.4884
Strip 33
 416       5.504e+00       4.937e+00       3.508e-04           0.065          -0.054           0.996       4.279e-03          0.0448
 417       5.472e+00       4.937e+00       2.388e-03           0.062          -0.051           0.997       1.259e-02          0.0747
 418       5.400e+00       4.937e+00       6.763e-03           0.056          -0.046           0.997       2.015e-02          0.1043
 419       5.291e+00       4.937e+00       1.261e-02           0.048          -0.039           0.998       2.653e-02          0.1296
 420       5.153e+00       4.937e+00       1.878e-02           0.037          -0.030           0.999       3.136e-02          0.1512
 421       4.992e+00       4.937e+00       2.415e-02           0.024          -0.020           1.000       3.436e-02          0.1684
 422       4.819e+00       4.937e+00       2.778e-02           0.011          -0.009           1.000       3.538e-02          0.1862
 423       4.643e+00       4.937e+00       2.901e-02          -0.006           0.005           1.000       3.435e-02          0.2014
 424       4.474e+00       4.937e+00       2.700e-02          -0.033           0.027           0.999       3.135e-02          0.1716
 425       4.324e+00       4.937e+00       2.127e-02          -0.057           0.047           0.997       2.655e-02          0.1080
 426       4.199e+00       4.937e+00       1.363e-02          -0.077           0.063           0.995       2.019e-02          0.0124
 427       4.108e+00       4.937e+00       6.383e-03          -0.090           0.074           0.993       1.263e-02         -0.1394
 428       4.055e+00       4.937e+00       1.571e-03          -0.097           0.080           0.992       4.298e-03         -0.5024
Strip 34
 429       5.653e+00       5.119e+00       3.508e-04           0.065          -0.054           0.996       3.542e-03          0.0400
 430       5.622e+00       5.119e+00       2.388e-03           0.062          -0.051           0.997       1.042e-02          0.0665
 431       5.549e+00       5.119e+00       6.763e-03           0.056          -0.046           0.997       1.668e-02          0.0926
 432       5.441e+00       5.119e+00       1.261e-02           0.048          -0.039           0.998       2.196e-02          0.1152
 433       5.302e+00       5.119e+00       1.878e-02           0.037          -0.030           0.999       2.595e-02          0.1351
 434       5.141e+00       5.119e+00       2.415e-02           0.024          -0.020           1.000       2.844e-02          0.1524
 435       4.968e+00       5.119e+00       2.778e-02           0.011          -0.009           1.000       2.928e-02          0.1726
 436       4.792e+00       5.119e+00       2.901e-02          -0.006           0.005           1.000       2.843e-02          0.1917
 437       4.624e+00       5.119e+00       2.700e-02          -0.033           0.027           0.999       2.595e-02          0.1654
 438       4.473e+00       5.119e+00       2.127e-02          -0.057           0.047           0.997       2.198e-02          0.1035
 439       4.348e+00       5.119e+00       1.363e-02          -0.077           0.063           0.995       1.671e-02          0.0078
 440       4.257e+00       5.119e+00       6.383e-03          -0.090           0.074           0.993       1.045e-02         -0.1458
 441       4.205e+00       5.119e+00       1.571e-03          -0.097           0.080           0.992       3.557e-03         -0.5169
Strip 35
 442       5.774e+00       5.267e+00       3.508e-04           0.065          -0.054           0.996       2.780e-03          0.0343
 443       5.742e+00       5.267e+00       2.388e-03           0.062          -0.051           0.997       8.176e-03          0.0566
 444       5.670e+00       5.267e+00       6.763e-03           0.056          -0.046           0.997       1.309e-02          0.0784
 445       5.561e+00       5.267e+00       1.261e-02           0.048          -0.039           0.998       1.724e-02          0.0971
 446       5.423e+00       5.267e+00       1.878e-02           0.037          -0.030           0.999       2.037e-02          0.1139
 447       5.262e+00       5.267e+00       2.415e-02           0.024          -0.020           1.000       2.233e-02          0.1293
 448       5.089e+00       5.267e+00       2.778e-02           0.011          -0.009           1.000       2.298e-02          0.1502
 449       4.913e+00       5.267e+00       2.901e-02          -0.006           0.005           1.000       2.232e-02          0.1744
 450       4.744e+00       5.267e+00       2.700e-02          -0.033           0.027           0.999       2.037e-02          0.1562
 451       4.594e+00       5.267e+00       2.127e-02          -0.057           0.047           0.997       1.725e-02          0.0999
 452       4.469e+00       5.267e+00       1.363e-02          -0.077           0.063           0.995       1.312e-02          0.0052
 453       4.378e+00       5.267e+00       6.383e-03          -0.090           0.074           0.993       8.206e-03         -0.1502
 454       4.325e+00       5.267e+00       1.571e-03          -0.097           0.080           0.992       2.792e-03         -0.5275
Strip 36
 455       5.865e+00       5.378e+00       3.508e-04           0.065          -0.054           0.996       2.000e-03          0.0277
 456       5.833e+00       5.378e+00       2.388e-03           0.062          -0.051           0.997       5.881e-03          0.0453
 457       5.761e+00       5.378e+00       6.763e-03           0.056          -0.046           0.997       9.415e-03          0.0622
 458       5.652e+00       5.378e+00       1.261e-02           0.048          -0.039           0.998       1.240e-02          0.0766
 459       5.514e+00       5.378e+00       1.878e-02           0.037          -0.030           0.999       1.465e-02          0.0894
 460       5.353e+00       5.378e+00       2.415e-02           0.024          -0.020           1.000       1.606e-02          0.1010
 461       5.180e+00       5.378e+00       2.778e-02           0.011          -0.009           1.000       1.653e-02          0.1192
 462       5.004e+00       5.378e+00       2.901e-02          -0.006           0.005           1.000       1.605e-02          0.1453
 463       4.836e+00       5.378e+00       2.700e-02          -0.033           0.027           0.999       1.465e-02          0.1373
 464       4.685e+00       5.378e+00       2.127e-02          -0.057           0.047           0.997       1.241e-02          0.0965
 465       4.560e+00       5.378e+00       1.363e-02          -0.077           0.063           0.995       9.436e-03          0.0097
 466       4.469e+00       5.378e+00       6.383e-03          -0.090           0.074           0.993       5.902e-03         -0.1473
 467       4.416e+00       5.378e+00       1.571e-03          -0.097           0.080           0.992       2.008e-03         -0.5259
Strip 37
 468       5.926e+00       5.453e+00       3.508e-04           0.065          -0.054           0.996       1.205e-03          0.0202
 469       5.895e+00       5.453e+00       2.388e-03           0.062          -0.051           0.997       3.544e-03          0.0328
 470       5.822e+00       5.453e+00       6.763e-03           0.056          -0.046           0.997       5.675e-03          0.0448
 471       5.714e+00       5.453e+00       1.261e-02           0.048          -0.039           0.998       7.471e-03          0.0545
 472       5.575e+00       5.453e+00       1.878e-02           0.037          -0.030           0.999       8.832e-03          0.0631
 473       5.414e+00       5.453e+00       2.415e-02           0.024          -0.020           1.000       9.678e-03          0.0705
 474       5.241e+00       5.453e+00       2.778e-02           0.011          -0.009           1.000       9.964e-03          0.0835
 475       5.065e+00       5.453e+00       2.901e-02          -0.006           0.005           1.000       9.674e-03          0.1055
 476       4.897e+00       5.453e+00       2.700e-02          -0.033           0.027           0.999       8.830e-03          0.1031
 477       4.746e+00       5.453e+00       2.127e-02          -0.057           0.047           0.997       7.478e-03          0.0808
 478       4.621e+00       5.453e+00       1.363e-02          -0.077           0.063           0.995       5.688e-03          0.0251
 479       4.530e+00       5.453e+00       6.383e-03          -0.090           0.074           0.993       3.557e-03         -0.1226
 480       4.478e+00       5.453e+00       1.571e-03          -0.097           0.080           0.992       1.211e-03         -0.4970
Strip 38
 481       5.957e+00       5.491e+00       3.508e-04           0.065          -0.054           0.996       4.027e-04          0.0142
 482       5.925e+00       5.491e+00       2.388e-03           0.062          -0.051           0.997       1.184e-03          0.0204
 483       5.853e+00       5.491e+00       6.763e-03           0.056          -0.046           0.997       1.896e-03          0.0268
 484       5.744e+00       5.491e+00       1.261e-02           0.048          -0.039           0.998       2.496e-03          0.0321
 485       5.606e+00       5.491e+00       1.878e-02           0.037          -0.030           0.999       2.951e-03          0.0369
 486       5.445e+00       5.491e+00       2.415e-02           0.024          -0.020           1.000       3.233e-03          0.0411
 487       5.272e+00       5.491e+00       2.778e-02           0.011          -0.009           1.000       3.329e-03          0.0486
 488       5.096e+00       5.491e+00       2.901e-02          -0.006           0.005           1.000       3.232e-03          0.0623
 489       4.927e+00       5.491e+00       2.700e-02          -0.033           0.027           0.999       2.950e-03          0.0616
 490       4.777e+00       5.491e+00       2.127e-02          -0.057           0.047           0.997       2.498e-03          0.0498
 491       4.652e+00       5.491e+00       1.363e-02          -0.077           0.063           0.995       1.900e-03          0.0224
 492       4.561e+00       5.491e+00       6.383e-03          -0.090           0.074           0.993       1.188e-03         -0.0520
 493       4.508e+00       5.491e+00       1.571e-03          -0.097           0.080           0.992       4.044e-04         -0.4075










