xflr5 v6.47

Flying_wing_11
T1-55.0 m/s-VLM2-Inviscid
QInf  =   55.000000 m/s
Alpha =    0.000000
Beta  =    0.000°
Phi   =    0.000°
Ctrl  =    0.000
CL    =    0.123613
Cy    =   -0.000000
Cd    =    0.000791     ICd   =    0.000791     PCd   =    0.000000
Cl   = -3.77724e-17
Cm   =  -0.0166262
ICn   =   -0.000000     PCn   =   -0.000000 
XCP   =    3.317304     YCP   =    0.000000     ZCP   =    0.025213  
XNP   =    0.000000
Bending = 4633.141154

Main Wing
  y-span        Chord      Ai         Cl        PCd          ICd        CmGeom    CmAirf@chord/4    XTrtop    XTrBot      XCP       BM
   -5.4906     1.4700    -1.687    0.032130    0.000000    0.000936   -0.058175   -0.009788     0.0000    0.0000    0.5581    0.0000
   -5.4531     1.4700    -1.583    0.054026    0.000000    0.001491   -0.097330   -0.016391     0.0000    0.0000    0.5538    0.0618
   -5.3783     1.4700    -1.443    0.075355    0.000000    0.001898   -0.132274   -0.022762     0.0000    0.0000    0.5522    0.8047
   -5.2668     1.4700    -1.275    0.093418    0.000000    0.002079   -0.157642   -0.028287     0.0000    0.0000    0.5529    4.0516
   -5.1194     1.4700    -1.091    0.107518    0.000000    0.002047   -0.171750   -0.032662     0.0000    0.0000    0.5538   13.2230
   -4.9369     1.4700    -0.905    0.117681    0.000000    0.001858   -0.174724   -0.035759     0.0000    0.0000    0.5539   33.4152
   -4.7208     1.4700    -0.735    0.124499    0.000000    0.001597   -0.168085   -0.037709     0.0000    0.0000    0.5529   71.2003
   -4.4723     1.4700    -0.596    0.128851    0.000000    0.001341   -0.153979   -0.038839     0.0000    0.0000    0.5514   134.2621
   -4.1934     1.4700    -0.492    0.131533    0.000000    0.001128   -0.134329   -0.039484     0.0000    0.0000    0.5502   230.9911
   -3.8858     1.4700    -0.414    0.133077    0.000000    0.000962   -0.110510   -0.039867     0.0000    0.0000    0.5496   370.0933
   -3.5516     1.4700    -0.357    0.133790    0.000000    0.000834   -0.083482   -0.040108     0.0000    0.0000    0.5498   560.2071
   -3.1932     1.4700    -0.315    0.133836    0.000000    0.000735   -0.053994   -0.040271     0.0000    0.0000    0.5509   809.5187
   -2.8130     1.4700    -0.283    0.133281    0.000000    0.000657   -0.022720   -0.040394     0.0000    0.0000    0.5531   1125.3818
   -2.4135     1.4700    -0.257    0.132117    0.000000    0.000593    0.009654   -0.040503     0.0000    0.0000    0.5566   1513.9448
   -1.9976     1.4700    -0.236    0.130255    0.000000    0.000537    0.042330   -0.040624     0.0000    0.0000    0.5619   1979.7902
   -1.5680     1.4700    -0.216    0.127502    0.000000    0.000480    0.074272   -0.040803     0.0000    0.0000    0.5700   2525.5856
   -1.1277     1.4700    -0.188    0.123503    0.000000    0.000405    0.103942   -0.041151     0.0000    0.0000    0.5832   3151.7376
   -0.6797     1.4700    -0.129    0.117609    0.000000    0.000265    0.128740   -0.042013     0.0000    0.0000    0.6072   3856.0229
   -0.2271     1.4700     0.090    0.108787    0.000000   -0.000172    0.143965   -0.044431     0.0000    0.0000    0.6584   4633.1412
    0.2271     1.4700     0.090    0.108787    0.000000   -0.000172    0.143965   -0.044431     0.0000    0.0000    0.6584   4633.1412
    0.6797     1.4700    -0.129    0.117609    0.000000    0.000265    0.128740   -0.042013     0.0000    0.0000    0.6072   3856.0229
    1.1277     1.4700    -0.188    0.123503    0.000000    0.000405    0.103942   -0.041151     0.0000    0.0000    0.5832   3151.7376
    1.5680     1.4700    -0.216    0.127502    0.000000    0.000480    0.074272   -0.040803     0.0000    0.0000    0.5700   2525.5856
    1.9976     1.4700    -0.236    0.130255    0.000000    0.000537    0.042330   -0.040624     0.0000    0.0000    0.5619   1979.7902
    2.4135     1.4700    -0.257    0.132117    0.000000    0.000593    0.009654   -0.040503     0.0000    0.0000    0.5566   1513.9448
    2.8130     1.4700    -0.283    0.133281    0.000000    0.000657   -0.022720   -0.040394     0.0000    0.0000    0.5531   1125.3818
    3.1932     1.4700    -0.315    0.133836    0.000000    0.000735   -0.053994   -0.040271     0.0000    0.0000    0.5509   809.5187
    3.5516     1.4700    -0.357    0.133790    0.000000    0.000834   -0.083482   -0.040108     0.0000    0.0000    0.5498   560.2071
    3.8858     1.4700    -0.414    0.133077    0.000000    0.000962   -0.110510   -0.039867     0.0000    0.0000    0.5496   370.0933
    4.1934     1.4700    -0.492    0.131533    0.000000    0.001128   -0.134329   -0.039484     0.0000    0.0000    0.5502   230.9911
    4.4723     1.4700    -0.596    0.128851    0.000000    0.001341   -0.153979   -0.038839     0.0000    0.0000    0.5514   134.2621
    4.7208     1.4700    -0.735    0.124499    0.000000    0.001597   -0.168085   -0.037709     0.0000    0.0000    0.5529   71.2003
    4.9369     1.4700    -0.905    0.117681    0.000000    0.001858   -0.174724   -0.035759     0.0000    0.0000    0.5539   33.4152
    5.1194     1.4700    -1.091    0.107518    0.000000    0.002047   -0.171750   -0.032662     0.0000    0.0000    0.5538   13.2230
    5.2668     1.4700    -1.275    0.093418    0.000000    0.002079   -0.157642   -0.028287     0.0000    0.0000    0.5529    4.0516
    5.3783     1.4700    -1.443    0.075355    0.000000    0.001898   -0.132274   -0.022762     0.0000    0.0000    0.5522    0.8047
    5.4531     1.4700    -1.583    0.054026    0.000000    0.001491   -0.097330   -0.016391     0.0000    0.0000    0.5538    0.0618
    5.4906     1.4700    -1.687    0.032130    0.000000    0.000936   -0.058175   -0.009788     0.0000    0.0000    0.5581    0.0000


Main Wing Cp Coefficients
 Panel     CtrlPt.x        CtrlPt.y        CtrlPt.z       Nx      Ny       Nz        Area       Cp
Main WingCp Coefficients
Strip 1
   0       6.456e+00      -5.491e+00       3.508e-04           0.065           0.059           0.996       4.028e-04          0.0135
   1       6.424e+00      -5.491e+00       2.388e-03           0.062           0.057           0.996       1.185e-03          0.0194
   2       6.352e+00      -5.491e+00       6.763e-03           0.056           0.051           0.997       1.896e-03          0.0257
   3       6.243e+00      -5.491e+00       1.261e-02           0.047           0.043           0.998       2.497e-03          0.0309
   4       6.105e+00      -5.491e+00       1.878e-02           0.037           0.033           0.999       2.951e-03          0.0357
   5       5.944e+00      -5.491e+00       2.415e-02           0.024           0.022           0.999       3.234e-03          0.0398
   6       5.771e+00      -5.491e+00       2.778e-02           0.011           0.010           1.000       3.329e-03          0.0474
   7       5.595e+00      -5.491e+00       2.901e-02          -0.006          -0.005           1.000       3.232e-03          0.0610
   8       5.427e+00      -5.491e+00       2.700e-02          -0.033          -0.030           0.999       2.950e-03          0.0609
   9       5.276e+00      -5.491e+00       2.127e-02          -0.057          -0.052           0.997       2.499e-03          0.0500
  10       5.151e+00      -5.491e+00       1.363e-02          -0.077          -0.070           0.995       1.901e-03          0.0239
  11       5.060e+00      -5.491e+00       6.383e-03          -0.090          -0.082           0.993       1.189e-03         -0.0474
  12       5.007e+00      -5.491e+00       1.571e-03          -0.097          -0.088           0.991       4.047e-04         -0.3892
Strip 2
  13       6.422e+00      -5.453e+00       3.508e-04           0.065           0.059           0.996       1.206e-03          0.0191
  14       6.390e+00      -5.453e+00       2.388e-03           0.062           0.057           0.996       3.546e-03          0.0312
  15       6.318e+00      -5.453e+00       6.763e-03           0.056           0.051           0.997       5.676e-03          0.0429
  16       6.209e+00      -5.453e+00       1.261e-02           0.047           0.043           0.998       7.473e-03          0.0525
  17       6.071e+00      -5.453e+00       1.878e-02           0.037           0.033           0.999       8.833e-03          0.0609
  18       5.910e+00      -5.453e+00       2.415e-02           0.024           0.022           0.999       9.679e-03          0.0685
  19       5.737e+00      -5.453e+00       2.778e-02           0.011           0.010           1.000       9.964e-03          0.0814
  20       5.561e+00      -5.453e+00       2.901e-02          -0.006          -0.005           1.000       9.674e-03          0.1034
  21       5.393e+00      -5.453e+00       2.700e-02          -0.033          -0.030           0.999       8.830e-03          0.1020
  22       5.242e+00      -5.453e+00       2.127e-02          -0.057          -0.052           0.997       7.480e-03          0.0810
  23       5.117e+00      -5.453e+00       1.363e-02          -0.077          -0.070           0.995       5.690e-03          0.0272
  24       5.026e+00      -5.453e+00       6.383e-03          -0.090          -0.082           0.993       3.560e-03         -0.1147
  25       4.973e+00      -5.453e+00       1.571e-03          -0.097          -0.088           0.991       1.211e-03         -0.4659
Strip 3
  26       6.354e+00      -5.378e+00       3.508e-04           0.065           0.059           0.996       2.000e-03          0.0264
  27       6.322e+00      -5.378e+00       2.388e-03           0.062           0.057           0.996       5.882e-03          0.0433
  28       6.250e+00      -5.378e+00       6.763e-03           0.056           0.051           0.997       9.417e-03          0.0597
  29       6.141e+00      -5.378e+00       1.261e-02           0.047           0.043           0.998       1.240e-02          0.0738
  30       6.003e+00      -5.378e+00       1.878e-02           0.037           0.033           0.999       1.465e-02          0.0865
  31       5.842e+00      -5.378e+00       2.415e-02           0.024           0.022           0.999       1.606e-02          0.0982
  32       5.669e+00      -5.378e+00       2.778e-02           0.011           0.010           1.000       1.653e-02          0.1165
  33       5.493e+00      -5.378e+00       2.901e-02          -0.006          -0.005           1.000       1.605e-02          0.1425
  34       5.325e+00      -5.378e+00       2.700e-02          -0.033          -0.030           0.999       1.465e-02          0.1354
  35       5.174e+00      -5.378e+00       2.127e-02          -0.057          -0.052           0.997       1.241e-02          0.0961
  36       5.049e+00      -5.378e+00       1.363e-02          -0.077          -0.070           0.995       9.440e-03          0.0124
  37       4.958e+00      -5.378e+00       6.383e-03          -0.090          -0.082           0.993       5.905e-03         -0.1355
  38       4.905e+00      -5.378e+00       1.571e-03          -0.097          -0.088           0.991       2.010e-03         -0.4891
Strip 4
  39       6.253e+00      -5.267e+00       3.508e-04           0.065           0.059           0.996       2.781e-03          0.0329
  40       6.221e+00      -5.267e+00       2.388e-03           0.062           0.057           0.996       8.179e-03          0.0543
  41       6.149e+00      -5.267e+00       6.763e-03           0.056           0.051           0.997       1.309e-02          0.0754
  42       6.040e+00      -5.267e+00       1.261e-02           0.047           0.043           0.998       1.724e-02          0.0938
  43       5.901e+00      -5.267e+00       1.878e-02           0.037           0.033           0.999       2.038e-02          0.1105
  44       5.741e+00      -5.267e+00       2.415e-02           0.024           0.022           0.999       2.233e-02          0.1260
  45       5.567e+00      -5.267e+00       2.778e-02           0.011           0.010           1.000       2.299e-02          0.1469
  46       5.391e+00      -5.267e+00       2.901e-02          -0.006          -0.005           1.000       2.232e-02          0.1707
  47       5.223e+00      -5.267e+00       2.700e-02          -0.033          -0.030           0.999       2.037e-02          0.1532
  48       5.072e+00      -5.267e+00       2.127e-02          -0.057          -0.052           0.997       1.725e-02          0.0989
  49       4.948e+00      -5.267e+00       1.363e-02          -0.077          -0.070           0.995       1.313e-02          0.0089
  50       4.857e+00      -5.267e+00       6.383e-03          -0.090          -0.082           0.993       8.211e-03         -0.1370
  51       4.804e+00      -5.267e+00       1.571e-03          -0.097          -0.088           0.991       2.794e-03         -0.4884
Strip 5
  52       6.119e+00      -5.119e+00       3.508e-04           0.065           0.059           0.996       3.543e-03          0.0385
  53       6.087e+00      -5.119e+00       2.388e-03           0.062           0.057           0.996       1.042e-02          0.0641
  54       6.015e+00      -5.119e+00       6.763e-03           0.056           0.051           0.997       1.668e-02          0.0894
  55       5.906e+00      -5.119e+00       1.261e-02           0.047           0.043           0.998       2.196e-02          0.1116
  56       5.767e+00      -5.119e+00       1.878e-02           0.037           0.033           0.999       2.596e-02          0.1313
  57       5.607e+00      -5.119e+00       2.415e-02           0.024           0.022           0.999       2.844e-02          0.1485
  58       5.433e+00      -5.119e+00       2.778e-02           0.011           0.010           1.000       2.928e-02          0.1683
  59       5.257e+00      -5.119e+00       2.901e-02          -0.006          -0.005           1.000       2.843e-02          0.1867
  60       5.089e+00      -5.119e+00       2.700e-02          -0.033          -0.030           0.999       2.595e-02          0.1614
  61       4.938e+00      -5.119e+00       2.127e-02          -0.057          -0.052           0.997       2.198e-02          0.1023
  62       4.814e+00      -5.119e+00       1.363e-02          -0.077          -0.070           0.995       1.672e-02          0.0117
  63       4.722e+00      -5.119e+00       6.383e-03          -0.090          -0.082           0.993       1.046e-02         -0.1326
  64       4.670e+00      -5.119e+00       1.571e-03          -0.097          -0.088           0.991       3.560e-03         -0.4777
Strip 6
  65       5.953e+00      -4.937e+00       3.508e-04           0.065           0.059           0.996       4.281e-03          0.0432
  66       5.921e+00      -4.937e+00       2.388e-03           0.062           0.057           0.996       1.259e-02          0.0722
  67       5.849e+00      -4.937e+00       6.763e-03           0.056           0.051           0.997       2.015e-02          0.1009
  68       5.740e+00      -4.937e+00       1.261e-02           0.047           0.043           0.998       2.653e-02          0.1256
  69       5.601e+00      -4.937e+00       1.878e-02           0.037           0.033           0.999       3.136e-02          0.1468
  70       5.441e+00      -4.937e+00       2.415e-02           0.024           0.022           0.999       3.437e-02          0.1637
  71       5.267e+00      -4.937e+00       2.778e-02           0.011           0.010           1.000       3.538e-02          0.1809
  72       5.092e+00      -4.937e+00       2.901e-02          -0.006          -0.005           1.000       3.435e-02          0.1954
  73       4.923e+00      -4.937e+00       2.700e-02          -0.033          -0.030           0.999       3.135e-02          0.1670
  74       4.772e+00      -4.937e+00       2.127e-02          -0.057          -0.052           0.997       2.656e-02          0.1065
  75       4.648e+00      -4.937e+00       1.363e-02          -0.077          -0.070           0.995       2.020e-02          0.0160
  76       4.557e+00      -4.937e+00       6.383e-03          -0.090          -0.082           0.993       1.264e-02         -0.1267
  77       4.504e+00      -4.937e+00       1.571e-03          -0.097          -0.088           0.991       4.301e-03         -0.4645
Strip 7
  78       5.756e+00      -4.721e+00       3.508e-04           0.065           0.059           0.996       4.989e-03          0.0467
  79       5.725e+00      -4.721e+00       2.388e-03           0.062           0.057           0.996       1.467e-02          0.0780
  80       5.652e+00      -4.721e+00       6.763e-03           0.056           0.051           0.997       2.349e-02          0.1089
  81       5.544e+00      -4.721e+00       1.261e-02           0.047           0.043           0.998       3.092e-02          0.1351
  82       5.405e+00      -4.721e+00       1.878e-02           0.037           0.033           0.999       3.655e-02          0.1566
  83       5.244e+00      -4.721e+00       2.415e-02           0.024           0.022           0.999       4.005e-02          0.1726
  84       5.071e+00      -4.721e+00       2.778e-02           0.011           0.010           1.000       4.123e-02          0.1882
  85       4.895e+00      -4.721e+00       2.901e-02          -0.006          -0.005           1.000       4.003e-02          0.2009
  86       4.727e+00      -4.721e+00       2.700e-02          -0.033          -0.030           0.999       3.654e-02          0.1713
  87       4.576e+00      -4.721e+00       2.127e-02          -0.057          -0.052           0.997       3.095e-02          0.1103
  88       4.451e+00      -4.721e+00       1.363e-02          -0.077          -0.070           0.995       2.355e-02          0.0200
  89       4.360e+00      -4.721e+00       6.383e-03          -0.090          -0.082           0.993       1.473e-02         -0.1212
  90       4.308e+00      -4.721e+00       1.571e-03          -0.097          -0.088           0.991       5.013e-03         -0.4522
Strip 8
  91       5.530e+00      -4.472e+00       3.508e-04           0.065           0.059           0.996       5.664e-03          0.0488
  92       5.499e+00      -4.472e+00       2.388e-03           0.062           0.057           0.996       1.666e-02          0.0817
  93       5.426e+00      -4.472e+00       6.763e-03           0.056           0.051           0.997       2.666e-02          0.1138
  94       5.318e+00      -4.472e+00       1.261e-02           0.047           0.043           0.998       3.511e-02          0.1408
  95       5.179e+00      -4.472e+00       1.878e-02           0.037           0.033           0.999       4.149e-02          0.1623
  96       5.018e+00      -4.472e+00       2.415e-02           0.024           0.022           0.999       4.547e-02          0.1778
  97       4.845e+00      -4.472e+00       2.778e-02           0.011           0.010           1.000       4.681e-02          0.1925
  98       4.669e+00      -4.472e+00       2.901e-02          -0.006          -0.005           1.000       4.544e-02          0.2046
  99       4.501e+00      -4.472e+00       2.700e-02          -0.033          -0.030           0.999       4.148e-02          0.1745
 100       4.350e+00      -4.472e+00       2.127e-02          -0.057          -0.052           0.997       3.514e-02          0.1133
 101       4.225e+00      -4.472e+00       1.363e-02          -0.077          -0.070           0.995       2.673e-02          0.0232
 102       4.134e+00      -4.472e+00       6.383e-03          -0.090          -0.082           0.993       1.672e-02         -0.1169
 103       4.082e+00      -4.472e+00       1.571e-03          -0.097          -0.088           0.991       5.691e-03         -0.4427
Strip 9
 104       5.277e+00      -4.193e+00       3.508e-04           0.065           0.059           0.996       6.299e-03          0.0501
 105       5.245e+00      -4.193e+00       2.388e-03           0.062           0.057           0.996       1.853e-02          0.0837
 106       5.173e+00      -4.193e+00       6.763e-03           0.056           0.051           0.997       2.966e-02          0.1166
 107       5.064e+00      -4.193e+00       1.261e-02           0.047           0.043           0.998       3.905e-02          0.1440
 108       4.925e+00      -4.193e+00       1.878e-02           0.037           0.033           0.999       4.615e-02          0.1656
 109       4.765e+00      -4.193e+00       2.415e-02           0.024           0.022           0.999       5.057e-02          0.1809
 110       4.591e+00      -4.193e+00       2.778e-02           0.011           0.010           1.000       5.206e-02          0.1953
 111       4.416e+00      -4.193e+00       2.901e-02          -0.006          -0.005           1.000       5.055e-02          0.2070
 112       4.247e+00      -4.193e+00       2.700e-02          -0.033          -0.030           0.999       4.614e-02          0.1767
 113       4.096e+00      -4.193e+00       2.127e-02          -0.057          -0.052           0.997       3.908e-02          0.1153
 114       3.972e+00      -4.193e+00       1.363e-02          -0.077          -0.070           0.995       2.973e-02          0.0253
 115       3.881e+00      -4.193e+00       6.383e-03          -0.090          -0.082           0.993       1.860e-02         -0.1140
 116       3.828e+00      -4.193e+00       1.571e-03          -0.097          -0.088           0.991       6.330e-03         -0.4364
Strip 10
 117       4.997e+00      -3.886e+00       3.508e-04           0.065           0.059           0.996       6.892e-03          0.0508
 118       4.965e+00      -3.886e+00       2.388e-03           0.062           0.057           0.996       2.027e-02          0.0849
 119       4.893e+00      -3.886e+00       6.763e-03           0.056           0.051           0.997       3.245e-02          0.1182
 120       4.785e+00      -3.886e+00       1.261e-02           0.047           0.043           0.998       4.272e-02          0.1458
 121       4.646e+00      -3.886e+00       1.878e-02           0.037           0.033           0.999       5.049e-02          0.1675
 122       4.485e+00      -3.886e+00       2.415e-02           0.024           0.022           0.999       5.533e-02          0.1827
 123       4.312e+00      -3.886e+00       2.778e-02           0.011           0.010           1.000       5.696e-02          0.1970
 124       4.136e+00      -3.886e+00       2.901e-02          -0.006          -0.005           1.000       5.530e-02          0.2085
 125       3.968e+00      -3.886e+00       2.700e-02          -0.033          -0.030           0.999       5.048e-02          0.1779
 126       3.817e+00      -3.886e+00       2.127e-02          -0.057          -0.052           0.997       4.276e-02          0.1164
 127       3.692e+00      -3.886e+00       1.363e-02          -0.077          -0.070           0.995       3.253e-02          0.0264
 128       3.601e+00      -3.886e+00       6.383e-03          -0.090          -0.082           0.993       2.035e-02         -0.1127
 129       3.549e+00      -3.886e+00       1.571e-03          -0.097          -0.088           0.991       6.925e-03         -0.4335
Strip 11
 130       4.693e+00      -3.552e+00       3.508e-04           0.065           0.059           0.996       7.438e-03          0.0512
 131       4.662e+00      -3.552e+00       2.388e-03           0.062           0.057           0.996       2.187e-02          0.0856
 132       4.589e+00      -3.552e+00       6.763e-03           0.056           0.051           0.997       3.502e-02          0.1191
 133       4.481e+00      -3.552e+00       1.261e-02           0.047           0.043           0.998       4.610e-02          0.1468
 134       4.342e+00      -3.552e+00       1.878e-02           0.037           0.033           0.999       5.449e-02          0.1686
 135       4.181e+00      -3.552e+00       2.415e-02           0.024           0.022           0.999       5.971e-02          0.1837
 136       4.008e+00      -3.552e+00       2.778e-02           0.011           0.010           1.000       6.147e-02          0.1979
 137       3.832e+00      -3.552e+00       2.901e-02          -0.006          -0.005           1.000       5.968e-02          0.2092
 138       3.664e+00      -3.552e+00       2.700e-02          -0.033          -0.030           0.999       5.448e-02          0.1785
 139       3.513e+00      -3.552e+00       2.127e-02          -0.057          -0.052           0.997       4.614e-02          0.1168
 140       3.388e+00      -3.552e+00       1.363e-02          -0.077          -0.070           0.995       3.510e-02          0.0265
 141       3.297e+00      -3.552e+00       6.383e-03          -0.090          -0.082           0.993       2.196e-02         -0.1128
 142       3.245e+00      -3.552e+00       1.571e-03          -0.097          -0.088           0.991       7.473e-03         -0.4340
Strip 12
 143       4.368e+00      -3.193e+00       3.508e-04           0.065           0.059           0.996       7.933e-03          0.0514
 144       4.336e+00      -3.193e+00       2.388e-03           0.062           0.057           0.996       2.333e-02          0.0859
 145       4.264e+00      -3.193e+00       6.763e-03           0.056           0.051           0.997       3.735e-02          0.1196
 146       4.155e+00      -3.193e+00       1.261e-02           0.047           0.043           0.998       4.917e-02          0.1474
 147       4.016e+00      -3.193e+00       1.878e-02           0.037           0.033           0.999       5.811e-02          0.1691
 148       3.856e+00      -3.193e+00       2.415e-02           0.024           0.022           0.999       6.368e-02          0.1842
 149       3.682e+00      -3.193e+00       2.778e-02           0.011           0.010           1.000       6.556e-02          0.1982
 150       3.506e+00      -3.193e+00       2.901e-02          -0.006          -0.005           1.000       6.365e-02          0.2094
 151       3.338e+00      -3.193e+00       2.700e-02          -0.033          -0.030           0.999       5.810e-02          0.1784
 152       3.187e+00      -3.193e+00       2.127e-02          -0.057          -0.052           0.997       4.921e-02          0.1164
 153       3.063e+00      -3.193e+00       1.363e-02          -0.077          -0.070           0.995       3.744e-02          0.0257
 154       2.971e+00      -3.193e+00       6.383e-03          -0.090          -0.082           0.993       2.342e-02         -0.1144
 155       2.919e+00      -3.193e+00       1.571e-03          -0.097          -0.088           0.991       7.971e-03         -0.4380
Strip 13
 156       4.022e+00      -2.813e+00       3.508e-04           0.065           0.059           0.996       8.373e-03          0.0515
 157       3.990e+00      -2.813e+00       2.388e-03           0.062           0.057           0.996       2.462e-02          0.0861
 158       3.918e+00      -2.813e+00       6.763e-03           0.056           0.051           0.997       3.942e-02          0.1198
 159       3.809e+00      -2.813e+00       1.261e-02           0.047           0.043           0.998       5.190e-02          0.1476
 160       3.671e+00      -2.813e+00       1.878e-02           0.037           0.033           0.999       6.134e-02          0.1693
 161       3.510e+00      -2.813e+00       2.415e-02           0.024           0.022           0.999       6.722e-02          0.1843
 162       3.337e+00      -2.813e+00       2.778e-02           0.011           0.010           1.000       6.920e-02          0.1981
 163       3.161e+00      -2.813e+00       2.901e-02          -0.006          -0.005           1.000       6.718e-02          0.2090
 164       2.992e+00      -2.813e+00       2.700e-02          -0.033          -0.030           0.999       6.133e-02          0.1777
 165       2.842e+00      -2.813e+00       2.127e-02          -0.057          -0.052           0.997       5.195e-02          0.1152
 166       2.717e+00      -2.813e+00       1.363e-02          -0.077          -0.070           0.995       3.952e-02          0.0238
 167       2.626e+00      -2.813e+00       6.383e-03          -0.090          -0.082           0.993       2.472e-02         -0.1176
 168       2.573e+00      -2.813e+00       1.571e-03          -0.097          -0.088           0.991       8.413e-03         -0.4460
Strip 14
 169       3.659e+00      -2.414e+00       3.508e-04           0.065           0.059           0.996       8.757e-03          0.0515
 170       3.627e+00      -2.414e+00       2.388e-03           0.062           0.057           0.996       2.575e-02          0.0861
 171       3.555e+00      -2.414e+00       6.763e-03           0.056           0.051           0.997       4.123e-02          0.1198
 172       3.446e+00      -2.414e+00       1.261e-02           0.047           0.043           0.998       5.428e-02          0.1476
 173       3.307e+00      -2.414e+00       1.878e-02           0.037           0.033           0.999       6.415e-02          0.1691
 174       3.147e+00      -2.414e+00       2.415e-02           0.024           0.022           0.999       7.030e-02          0.1840
 175       2.973e+00      -2.414e+00       2.778e-02           0.011           0.010           1.000       7.237e-02          0.1976
 176       2.798e+00      -2.414e+00       2.901e-02          -0.006          -0.005           1.000       7.026e-02          0.2081
 177       2.629e+00      -2.414e+00       2.700e-02          -0.033          -0.030           0.999       6.413e-02          0.1764
 178       2.478e+00      -2.414e+00       2.127e-02          -0.057          -0.052           0.997       5.433e-02          0.1132
 179       2.354e+00      -2.414e+00       1.363e-02          -0.077          -0.070           0.995       4.133e-02          0.0208
 180       2.263e+00      -2.414e+00       6.383e-03          -0.090          -0.082           0.993       2.585e-02         -0.1228
 181       2.210e+00      -2.414e+00       1.571e-03          -0.097          -0.088           0.991       8.799e-03         -0.4587
Strip 15
 182       3.281e+00      -1.998e+00       3.508e-04           0.065           0.059           0.996       9.080e-03          0.0515
 183       3.249e+00      -1.998e+00       2.388e-03           0.062           0.057           0.996       2.670e-02          0.0861
 184       3.177e+00      -1.998e+00       6.763e-03           0.056           0.051           0.997       4.275e-02          0.1197
 185       3.068e+00      -1.998e+00       1.261e-02           0.047           0.043           0.998       5.628e-02          0.1473
 186       2.929e+00      -1.998e+00       1.878e-02           0.037           0.033           0.999       6.652e-02          0.1687
 187       2.769e+00      -1.998e+00       2.415e-02           0.024           0.022           0.999       7.289e-02          0.1833
 188       2.595e+00      -1.998e+00       2.778e-02           0.011           0.010           1.000       7.504e-02          0.1966
 189       2.419e+00      -1.998e+00       2.901e-02          -0.006          -0.005           1.000       7.286e-02          0.2067
 190       2.251e+00      -1.998e+00       2.700e-02          -0.033          -0.030           0.999       6.651e-02          0.1743
 191       2.100e+00      -1.998e+00       2.127e-02          -0.057          -0.052           0.997       5.633e-02          0.1102
 192       1.976e+00      -1.998e+00       1.363e-02          -0.077          -0.070           0.995       4.286e-02          0.0162
 193       1.884e+00      -1.998e+00       6.383e-03          -0.090          -0.082           0.993       2.681e-02         -0.1306
 194       1.832e+00      -1.998e+00       1.571e-03          -0.097          -0.088           0.991       9.124e-03         -0.4775
Strip 16
 195       2.890e+00      -1.568e+00       3.508e-04           0.065           0.059           0.996       9.342e-03          0.0514
 196       2.858e+00      -1.568e+00       2.388e-03           0.062           0.057           0.996       2.747e-02          0.0859
 197       2.786e+00      -1.568e+00       6.763e-03           0.056           0.051           0.997       4.398e-02          0.1194
 198       2.677e+00      -1.568e+00       1.261e-02           0.047           0.043           0.998       5.790e-02          0.1470
 199       2.539e+00      -1.568e+00       1.878e-02           0.037           0.033           0.999       6.844e-02          0.1681
 200       2.378e+00      -1.568e+00       2.415e-02           0.024           0.022           0.999       7.499e-02          0.1824
 201       2.205e+00      -1.568e+00       2.778e-02           0.011           0.010           1.000       7.721e-02          0.1952
 202       2.029e+00      -1.568e+00       2.901e-02          -0.006          -0.005           1.000       7.496e-02          0.2046
 203       1.861e+00      -1.568e+00       2.700e-02          -0.033          -0.030           0.999       6.842e-02          0.1712
 204       1.710e+00      -1.568e+00       2.127e-02          -0.057          -0.052           0.997       5.796e-02          0.1057
 205       1.585e+00      -1.568e+00       1.363e-02          -0.077          -0.070           0.995       4.409e-02          0.0095
 206       1.494e+00      -1.568e+00       6.383e-03          -0.090          -0.082           0.993       2.758e-02         -0.1421
 207       1.441e+00      -1.568e+00       1.571e-03          -0.097          -0.088           0.991       9.386e-03         -0.5055
Strip 17
 208       2.490e+00      -1.128e+00       3.508e-04           0.065           0.059           0.996       9.539e-03          0.0514
 209       2.458e+00      -1.128e+00       2.388e-03           0.062           0.057           0.996       2.805e-02          0.0859
 210       2.386e+00      -1.128e+00       6.763e-03           0.056           0.051           0.997       4.491e-02          0.1193
 211       2.277e+00      -1.128e+00       1.261e-02           0.047           0.043           0.998       5.913e-02          0.1467
 212       2.139e+00      -1.128e+00       1.878e-02           0.037           0.033           0.999       6.989e-02          0.1676
 213       1.978e+00      -1.128e+00       2.415e-02           0.024           0.022           0.999       7.658e-02          0.1814
 214       1.804e+00      -1.128e+00       2.778e-02           0.011           0.010           1.000       7.884e-02          0.1934
 215       1.629e+00      -1.128e+00       2.901e-02          -0.006          -0.005           1.000       7.654e-02          0.2017
 216       1.460e+00      -1.128e+00       2.700e-02          -0.033          -0.030           0.999       6.987e-02          0.1667
 217       1.310e+00      -1.128e+00       2.127e-02          -0.057          -0.052           0.997       5.918e-02          0.0989
 218       1.185e+00      -1.128e+00       1.363e-02          -0.077          -0.070           0.995       4.502e-02         -0.0009
 219       1.094e+00      -1.128e+00       6.383e-03          -0.090          -0.082           0.993       2.816e-02         -0.1599
 220       1.041e+00      -1.128e+00       1.571e-03          -0.097          -0.088           0.991       9.585e-03         -0.5488
Strip 18
 221       2.083e+00      -6.797e-01       3.508e-04           0.065           0.059           0.996       9.672e-03          0.0517
 222       2.051e+00      -6.797e-01       2.388e-03           0.062           0.057           0.996       2.844e-02          0.0864
 223       1.979e+00      -6.797e-01       6.763e-03           0.056           0.051           0.997       4.554e-02          0.1200
 224       1.870e+00      -6.797e-01       1.261e-02           0.047           0.043           0.998       5.995e-02          0.1474
 225       1.731e+00      -6.797e-01       1.878e-02           0.037           0.033           0.999       7.086e-02          0.1680
 226       1.571e+00      -6.797e-01       2.415e-02           0.024           0.022           0.999       7.765e-02          0.1810
 227       1.397e+00      -6.797e-01       2.778e-02           0.011           0.010           1.000       7.994e-02          0.1915
 228       1.221e+00      -6.797e-01       2.901e-02          -0.006          -0.005           1.000       7.761e-02          0.1975
 229       1.053e+00      -6.797e-01       2.700e-02          -0.033          -0.030           0.999       7.084e-02          0.1593
 230       9.023e-01      -6.797e-01       2.127e-02          -0.057          -0.052           0.997       6.001e-02          0.0875
 231       7.776e-01      -6.797e-01       1.363e-02          -0.077          -0.070           0.995       4.565e-02         -0.0182
 232       6.864e-01      -6.797e-01       6.383e-03          -0.090          -0.082           0.993       2.856e-02         -0.1891
 233       6.340e-01      -6.797e-01       1.571e-03          -0.097          -0.088           0.991       9.718e-03         -0.6194
Strip 19
 234       1.671e+00      -2.271e-01       3.508e-04           0.065           0.059           0.996       9.739e-03          0.0548
 235       1.639e+00      -2.271e-01       2.388e-03           0.062           0.057           0.996       2.864e-02          0.0916
 236       1.567e+00      -2.271e-01       6.763e-03           0.056           0.051           0.997       4.585e-02          0.1271
 237       1.458e+00      -2.271e-01       1.261e-02           0.047           0.043           0.998       6.036e-02          0.1551
 238       1.320e+00      -2.271e-01       1.878e-02           0.037           0.033           0.999       7.135e-02          0.1741
 239       1.159e+00      -2.271e-01       2.415e-02           0.024           0.022           0.999       7.818e-02          0.1830
 240       9.857e-01      -2.271e-01       2.778e-02           0.011           0.010           1.000       8.049e-02          0.1876
 241       8.098e-01      -2.271e-01       2.901e-02          -0.006          -0.005           1.000       7.814e-02          0.1868
 242       6.416e-01      -2.271e-01       2.700e-02          -0.033          -0.030           0.999       7.133e-02          0.1421
 243       4.908e-01      -2.271e-01       2.127e-02          -0.057          -0.052           0.997       6.042e-02          0.0642
 244       3.661e-01      -2.271e-01       1.363e-02          -0.077          -0.070           0.995       4.596e-02         -0.0484
 245       2.749e-01      -2.271e-01       6.383e-03          -0.090          -0.082           0.993       2.875e-02         -0.2335
 246       2.225e-01      -2.271e-01       1.571e-03          -0.097          -0.088           0.991       9.785e-03         -0.7190
Strip 20
 247       1.671e+00       2.271e-01       3.508e-04           0.065          -0.059           0.996       9.739e-03          0.0548
 248       1.639e+00       2.271e-01       2.388e-03           0.062          -0.057           0.996       2.864e-02          0.0916
 249       1.567e+00       2.271e-01       6.763e-03           0.056          -0.051           0.997       4.585e-02          0.1271
 250       1.458e+00       2.271e-01       1.261e-02           0.047          -0.043           0.998       6.036e-02          0.1551
 251       1.320e+00       2.271e-01       1.878e-02           0.037          -0.033           0.999       7.135e-02          0.1741
 252       1.159e+00       2.271e-01       2.415e-02           0.024          -0.022           0.999       7.818e-02          0.1830
 253       9.857e-01       2.271e-01       2.778e-02           0.011          -0.010           1.000       8.049e-02          0.1876
 254       8.098e-01       2.271e-01       2.901e-02          -0.006           0.005           1.000       7.814e-02          0.1868
 255       6.416e-01       2.271e-01       2.700e-02          -0.033           0.030           0.999       7.133e-02          0.1421
 256       4.908e-01       2.271e-01       2.127e-02          -0.057           0.052           0.997       6.042e-02          0.0642
 257       3.661e-01       2.271e-01       1.363e-02          -0.077           0.070           0.995       4.596e-02         -0.0484
 258       2.749e-01       2.271e-01       6.383e-03          -0.090           0.082           0.993       2.875e-02         -0.2335
 259       2.225e-01       2.271e-01       1.571e-03          -0.097           0.088           0.991       9.785e-03         -0.7190
Strip 21
 260       2.083e+00       6.797e-01       3.508e-04           0.065          -0.059           0.996       9.672e-03          0.0517
 261       2.051e+00       6.797e-01       2.388e-03           0.062          -0.057           0.996       2.844e-02          0.0864
 262       1.979e+00       6.797e-01       6.763e-03           0.056          -0.051           0.997       4.554e-02          0.1200
 263       1.870e+00       6.797e-01       1.261e-02           0.047          -0.043           0.998       5.995e-02          0.1474
 264       1.731e+00       6.797e-01       1.878e-02           0.037          -0.033           0.999       7.086e-02          0.1680
 265       1.571e+00       6.797e-01       2.415e-02           0.024          -0.022           0.999       7.765e-02          0.1810
 266       1.397e+00       6.797e-01       2.778e-02           0.011          -0.010           1.000       7.994e-02          0.1915
 267       1.221e+00       6.797e-01       2.901e-02          -0.006           0.005           1.000       7.761e-02          0.1975
 268       1.053e+00       6.797e-01       2.700e-02          -0.033           0.030           0.999       7.084e-02          0.1593
 269       9.023e-01       6.797e-01       2.127e-02          -0.057           0.052           0.997       6.001e-02          0.0875
 270       7.776e-01       6.797e-01       1.363e-02          -0.077           0.070           0.995       4.565e-02         -0.0182
 271       6.864e-01       6.797e-01       6.383e-03          -0.090           0.082           0.993       2.856e-02         -0.1891
 272       6.340e-01       6.797e-01       1.571e-03          -0.097           0.088           0.991       9.718e-03         -0.6194
Strip 22
 273       2.490e+00       1.128e+00       3.508e-04           0.065          -0.059           0.996       9.539e-03          0.0514
 274       2.458e+00       1.128e+00       2.388e-03           0.062          -0.057           0.996       2.805e-02          0.0859
 275       2.386e+00       1.128e+00       6.763e-03           0.056          -0.051           0.997       4.491e-02          0.1193
 276       2.277e+00       1.128e+00       1.261e-02           0.047          -0.043           0.998       5.913e-02          0.1467
 277       2.139e+00       1.128e+00       1.878e-02           0.037          -0.033           0.999       6.989e-02          0.1676
 278       1.978e+00       1.128e+00       2.415e-02           0.024          -0.022           0.999       7.658e-02          0.1814
 279       1.804e+00       1.128e+00       2.778e-02           0.011          -0.010           1.000       7.884e-02          0.1934
 280       1.629e+00       1.128e+00       2.901e-02          -0.006           0.005           1.000       7.654e-02          0.2017
 281       1.460e+00       1.128e+00       2.700e-02          -0.033           0.030           0.999       6.987e-02          0.1667
 282       1.310e+00       1.128e+00       2.127e-02          -0.057           0.052           0.997       5.918e-02          0.0989
 283       1.185e+00       1.128e+00       1.363e-02          -0.077           0.070           0.995       4.502e-02         -0.0009
 284       1.094e+00       1.128e+00       6.383e-03          -0.090           0.082           0.993       2.816e-02         -0.1599
 285       1.041e+00       1.128e+00       1.571e-03          -0.097           0.088           0.991       9.585e-03         -0.5488
Strip 23
 286       2.890e+00       1.568e+00       3.508e-04           0.065          -0.059           0.996       9.342e-03          0.0514
 287       2.858e+00       1.568e+00       2.388e-03           0.062          -0.057           0.996       2.747e-02          0.0859
 288       2.786e+00       1.568e+00       6.763e-03           0.056          -0.051           0.997       4.398e-02          0.1194
 289       2.677e+00       1.568e+00       1.261e-02           0.047          -0.043           0.998       5.790e-02          0.1470
 290       2.539e+00       1.568e+00       1.878e-02           0.037          -0.033           0.999       6.844e-02          0.1681
 291       2.378e+00       1.568e+00       2.415e-02           0.024          -0.022           0.999       7.499e-02          0.1824
 292       2.205e+00       1.568e+00       2.778e-02           0.011          -0.010           1.000       7.721e-02          0.1952
 293       2.029e+00       1.568e+00       2.901e-02          -0.006           0.005           1.000       7.496e-02          0.2046
 294       1.861e+00       1.568e+00       2.700e-02          -0.033           0.030           0.999       6.842e-02          0.1712
 295       1.710e+00       1.568e+00       2.127e-02          -0.057           0.052           0.997       5.796e-02          0.1057
 296       1.585e+00       1.568e+00       1.363e-02          -0.077           0.070           0.995       4.409e-02          0.0095
 297       1.494e+00       1.568e+00       6.383e-03          -0.090           0.082           0.993       2.758e-02         -0.1421
 298       1.441e+00       1.568e+00       1.571e-03          -0.097           0.088           0.991       9.386e-03         -0.5055
Strip 24
 299       3.281e+00       1.998e+00       3.508e-04           0.065          -0.059           0.996       9.080e-03          0.0515
 300       3.249e+00       1.998e+00       2.388e-03           0.062          -0.057           0.996       2.670e-02          0.0861
 301       3.177e+00       1.998e+00       6.763e-03           0.056          -0.051           0.997       4.275e-02          0.1197
 302       3.068e+00       1.998e+00       1.261e-02           0.047          -0.043           0.998       5.628e-02          0.1473
 303       2.929e+00       1.998e+00       1.878e-02           0.037          -0.033           0.999       6.652e-02          0.1687
 304       2.769e+00       1.998e+00       2.415e-02           0.024          -0.022           0.999       7.289e-02          0.1833
 305       2.595e+00       1.998e+00       2.778e-02           0.011          -0.010           1.000       7.504e-02          0.1966
 306       2.419e+00       1.998e+00       2.901e-02          -0.006           0.005           1.000       7.286e-02          0.2067
 307       2.251e+00       1.998e+00       2.700e-02          -0.033           0.030           0.999       6.651e-02          0.1743
 308       2.100e+00       1.998e+00       2.127e-02          -0.057           0.052           0.997       5.633e-02          0.1102
 309       1.976e+00       1.998e+00       1.363e-02          -0.077           0.070           0.995       4.286e-02          0.0162
 310       1.884e+00       1.998e+00       6.383e-03          -0.090           0.082           0.993       2.681e-02         -0.1306
 311       1.832e+00       1.998e+00       1.571e-03          -0.097           0.088           0.991       9.124e-03         -0.4775
Strip 25
 312       3.659e+00       2.414e+00       3.508e-04           0.065          -0.059           0.996       8.757e-03          0.0515
 313       3.627e+00       2.414e+00       2.388e-03           0.062          -0.057           0.996       2.575e-02          0.0861
 314       3.555e+00       2.414e+00       6.763e-03           0.056          -0.051           0.997       4.123e-02          0.1198
 315       3.446e+00       2.414e+00       1.261e-02           0.047          -0.043           0.998       5.428e-02          0.1476
 316       3.307e+00       2.414e+00       1.878e-02           0.037          -0.033           0.999       6.415e-02          0.1691
 317       3.147e+00       2.414e+00       2.415e-02           0.024          -0.022           0.999       7.030e-02          0.1840
 318       2.973e+00       2.414e+00       2.778e-02           0.011          -0.010           1.000       7.237e-02          0.1976
 319       2.798e+00       2.414e+00       2.901e-02          -0.006           0.005           1.000       7.026e-02          0.2081
 320       2.629e+00       2.414e+00       2.700e-02          -0.033           0.030           0.999       6.413e-02          0.1764
 321       2.478e+00       2.414e+00       2.127e-02          -0.057           0.052           0.997       5.433e-02          0.1132
 322       2.354e+00       2.414e+00       1.363e-02          -0.077           0.070           0.995       4.133e-02          0.0208
 323       2.263e+00       2.414e+00       6.383e-03          -0.090           0.082           0.993       2.585e-02         -0.1228
 324       2.210e+00       2.414e+00       1.571e-03          -0.097           0.088           0.991       8.799e-03         -0.4587
Strip 26
 325       4.022e+00       2.813e+00       3.508e-04           0.065          -0.059           0.996       8.373e-03          0.0515
 326       3.990e+00       2.813e+00       2.388e-03           0.062          -0.057           0.996       2.462e-02          0.0861
 327       3.918e+00       2.813e+00       6.763e-03           0.056          -0.051           0.997       3.942e-02          0.1198
 328       3.809e+00       2.813e+00       1.261e-02           0.047          -0.043           0.998       5.190e-02          0.1476
 329       3.671e+00       2.813e+00       1.878e-02           0.037          -0.033           0.999       6.134e-02          0.1693
 330       3.510e+00       2.813e+00       2.415e-02           0.024          -0.022           0.999       6.722e-02          0.1843
 331       3.337e+00       2.813e+00       2.778e-02           0.011          -0.010           1.000       6.920e-02          0.1981
 332       3.161e+00       2.813e+00       2.901e-02          -0.006           0.005           1.000       6.718e-02          0.2090
 333       2.992e+00       2.813e+00       2.700e-02          -0.033           0.030           0.999       6.133e-02          0.1777
 334       2.842e+00       2.813e+00       2.127e-02          -0.057           0.052           0.997       5.195e-02          0.1152
 335       2.717e+00       2.813e+00       1.363e-02          -0.077           0.070           0.995       3.952e-02          0.0238
 336       2.626e+00       2.813e+00       6.383e-03          -0.090           0.082           0.993       2.472e-02         -0.1176
 337       2.573e+00       2.813e+00       1.571e-03          -0.097           0.088           0.991       8.413e-03         -0.4460
Strip 27
 338       4.368e+00       3.193e+00       3.508e-04           0.065          -0.059           0.996       7.933e-03          0.0514
 339       4.336e+00       3.193e+00       2.388e-03           0.062          -0.057           0.996       2.333e-02          0.0859
 340       4.264e+00       3.193e+00       6.763e-03           0.056          -0.051           0.997       3.735e-02          0.1196
 341       4.155e+00       3.193e+00       1.261e-02           0.047          -0.043           0.998       4.917e-02          0.1474
 342       4.016e+00       3.193e+00       1.878e-02           0.037          -0.033           0.999       5.811e-02          0.1691
 343       3.856e+00       3.193e+00       2.415e-02           0.024          -0.022           0.999       6.368e-02          0.1842
 344       3.682e+00       3.193e+00       2.778e-02           0.011          -0.010           1.000       6.556e-02          0.1982
 345       3.506e+00       3.193e+00       2.901e-02          -0.006           0.005           1.000       6.365e-02          0.2094
 346       3.338e+00       3.193e+00       2.700e-02          -0.033           0.030           0.999       5.810e-02          0.1784
 347       3.187e+00       3.193e+00       2.127e-02          -0.057           0.052           0.997       4.921e-02          0.1164
 348       3.063e+00       3.193e+00       1.363e-02          -0.077           0.070           0.995       3.744e-02          0.0257
 349       2.971e+00       3.193e+00       6.383e-03          -0.090           0.082           0.993       2.342e-02         -0.1144
 350       2.919e+00       3.193e+00       1.571e-03          -0.097           0.088           0.991       7.971e-03         -0.4380
Strip 28
 351       4.693e+00       3.552e+00       3.508e-04           0.065          -0.059           0.996       7.438e-03          0.0512
 352       4.662e+00       3.552e+00       2.388e-03           0.062          -0.057           0.996       2.187e-02          0.0856
 353       4.589e+00       3.552e+00       6.763e-03           0.056          -0.051           0.997       3.502e-02          0.1191
 354       4.481e+00       3.552e+00       1.261e-02           0.047          -0.043           0.998       4.610e-02          0.1468
 355       4.342e+00       3.552e+00       1.878e-02           0.037          -0.033           0.999       5.449e-02          0.1686
 356       4.181e+00       3.552e+00       2.415e-02           0.024          -0.022           0.999       5.971e-02          0.1837
 357       4.008e+00       3.552e+00       2.778e-02           0.011          -0.010           1.000       6.147e-02          0.1979
 358       3.832e+00       3.552e+00       2.901e-02          -0.006           0.005           1.000       5.968e-02          0.2092
 359       3.664e+00       3.552e+00       2.700e-02          -0.033           0.030           0.999       5.448e-02          0.1785
 360       3.513e+00       3.552e+00       2.127e-02          -0.057           0.052           0.997       4.614e-02          0.1168
 361       3.388e+00       3.552e+00       1.363e-02          -0.077           0.070           0.995       3.510e-02          0.0265
 362       3.297e+00       3.552e+00       6.383e-03          -0.090           0.082           0.993       2.196e-02         -0.1128
 363       3.245e+00       3.552e+00       1.571e-03          -0.097           0.088           0.991       7.473e-03         -0.4340
Strip 29
 364       4.997e+00       3.886e+00       3.508e-04           0.065          -0.059           0.996       6.892e-03          0.0508
 365       4.965e+00       3.886e+00       2.388e-03           0.062          -0.057           0.996       2.027e-02          0.0849
 366       4.893e+00       3.886e+00       6.763e-03           0.056          -0.051           0.997       3.245e-02          0.1182
 367       4.785e+00       3.886e+00       1.261e-02           0.047          -0.043           0.998       4.272e-02          0.1458
 368       4.646e+00       3.886e+00       1.878e-02           0.037          -0.033           0.999       5.049e-02          0.1675
 369       4.485e+00       3.886e+00       2.415e-02           0.024          -0.022           0.999       5.533e-02          0.1827
 370       4.312e+00       3.886e+00       2.778e-02           0.011          -0.010           1.000       5.696e-02          0.1970
 371       4.136e+00       3.886e+00       2.901e-02          -0.006           0.005           1.000       5.530e-02          0.2085
 372       3.968e+00       3.886e+00       2.700e-02          -0.033           0.030           0.999       5.048e-02          0.1779
 373       3.817e+00       3.886e+00       2.127e-02          -0.057           0.052           0.997       4.276e-02          0.1164
 374       3.692e+00       3.886e+00       1.363e-02          -0.077           0.070           0.995       3.253e-02          0.0264
 375       3.601e+00       3.886e+00       6.383e-03          -0.090           0.082           0.993       2.035e-02         -0.1127
 376       3.549e+00       3.886e+00       1.571e-03          -0.097           0.088           0.991       6.925e-03         -0.4335
Strip 30
 377       5.277e+00       4.193e+00       3.508e-04           0.065          -0.059           0.996       6.299e-03          0.0501
 378       5.245e+00       4.193e+00       2.388e-03           0.062          -0.057           0.996       1.853e-02          0.0837
 379       5.173e+00       4.193e+00       6.763e-03           0.056          -0.051           0.997       2.966e-02          0.1166
 380       5.064e+00       4.193e+00       1.261e-02           0.047          -0.043           0.998       3.905e-02          0.1440
 381       4.925e+00       4.193e+00       1.878e-02           0.037          -0.033           0.999       4.615e-02          0.1656
 382       4.765e+00       4.193e+00       2.415e-02           0.024          -0.022           0.999       5.057e-02          0.1809
 383       4.591e+00       4.193e+00       2.778e-02           0.011          -0.010           1.000       5.206e-02          0.1953
 384       4.416e+00       4.193e+00       2.901e-02          -0.006           0.005           1.000       5.055e-02          0.2070
 385       4.247e+00       4.193e+00       2.700e-02          -0.033           0.030           0.999       4.614e-02          0.1767
 386       4.096e+00       4.193e+00       2.127e-02          -0.057           0.052           0.997       3.908e-02          0.1153
 387       3.972e+00       4.193e+00       1.363e-02          -0.077           0.070           0.995       2.973e-02          0.0253
 388       3.881e+00       4.193e+00       6.383e-03          -0.090           0.082           0.993       1.860e-02         -0.1140
 389       3.828e+00       4.193e+00       1.571e-03          -0.097           0.088           0.991       6.330e-03         -0.4364
Strip 31
 390       5.530e+00       4.472e+00       3.508e-04           0.065          -0.059           0.996       5.664e-03          0.0488
 391       5.499e+00       4.472e+00       2.388e-03           0.062          -0.057           0.996       1.666e-02          0.0817
 392       5.426e+00       4.472e+00       6.763e-03           0.056          -0.051           0.997       2.666e-02          0.1138
 393       5.318e+00       4.472e+00       1.261e-02           0.047          -0.043           0.998       3.511e-02          0.1408
 394       5.179e+00       4.472e+00       1.878e-02           0.037          -0.033           0.999       4.149e-02          0.1623
 395       5.018e+00       4.472e+00       2.415e-02           0.024          -0.022           0.999       4.547e-02          0.1778
 396       4.845e+00       4.472e+00       2.778e-02           0.011          -0.010           1.000       4.681e-02          0.1925
 397       4.669e+00       4.472e+00       2.901e-02          -0.006           0.005           1.000       4.544e-02          0.2046
 398       4.501e+00       4.472e+00       2.700e-02          -0.033           0.030           0.999       4.148e-02          0.1745
 399       4.350e+00       4.472e+00       2.127e-02          -0.057           0.052           0.997       3.514e-02          0.1133
 400       4.225e+00       4.472e+00       1.363e-02          -0.077           0.070           0.995       2.673e-02          0.0232
 401       4.134e+00       4.472e+00       6.383e-03          -0.090           0.082           0.993       1.672e-02         -0.1169
 402       4.082e+00       4.472e+00       1.571e-03          -0.097           0.088           0.991       5.691e-03         -0.4427
Strip 32
 403       5.756e+00       4.721e+00       3.508e-04           0.065          -0.059           0.996       4.989e-03          0.0467
 404       5.725e+00       4.721e+00       2.388e-03           0.062          -0.057           0.996       1.467e-02          0.0780
 405       5.652e+00       4.721e+00       6.763e-03           0.056          -0.051           0.997       2.349e-02          0.1089
 406       5.544e+00       4.721e+00       1.261e-02           0.047          -0.043           0.998       3.092e-02          0.1351
 407       5.405e+00       4.721e+00       1.878e-02           0.037          -0.033           0.999       3.655e-02          0.1566
 408       5.244e+00       4.721e+00       2.415e-02           0.024          -0.022           0.999       4.005e-02          0.1726
 409       5.071e+00       4.721e+00       2.778e-02           0.011          -0.010           1.000       4.123e-02          0.1882
 410       4.895e+00       4.721e+00       2.901e-02          -0.006           0.005           1.000       4.003e-02          0.2009
 411       4.727e+00       4.721e+00       2.700e-02          -0.033           0.030           0.999       3.654e-02          0.1713
 412       4.576e+00       4.721e+00       2.127e-02          -0.057           0.052           0.997       3.095e-02          0.1103
 413       4.451e+00       4.721e+00       1.363e-02          -0.077           0.070           0.995       2.355e-02          0.0200
 414       4.360e+00       4.721e+00       6.383e-03          -0.090           0.082           0.993       1.473e-02         -0.1212
 415       4.308e+00       4.721e+00       1.571e-03          -0.097           0.088           0.991       5.013e-03         -0.4522
Strip 33
 416       5.953e+00       4.937e+00       3.508e-04           0.065          -0.059           0.996       4.281e-03          0.0432
 417       5.921e+00       4.937e+00       2.388e-03           0.062          -0.057           0.996       1.259e-02          0.0722
 418       5.849e+00       4.937e+00       6.763e-03           0.056          -0.051           0.997       2.015e-02          0.1009
 419       5.740e+00       4.937e+00       1.261e-02           0.047          -0.043           0.998       2.653e-02          0.1256
 420       5.601e+00       4.937e+00       1.878e-02           0.037          -0.033           0.999       3.136e-02          0.1468
 421       5.441e+00       4.937e+00       2.415e-02           0.024          -0.022           0.999       3.437e-02          0.1637
 422       5.267e+00       4.937e+00       2.778e-02           0.011          -0.010           1.000       3.538e-02          0.1809
 423       5.092e+00       4.937e+00       2.901e-02          -0.006           0.005           1.000       3.435e-02          0.1954
 424       4.923e+00       4.937e+00       2.700e-02          -0.033           0.030           0.999       3.135e-02          0.1670
 425       4.772e+00       4.937e+00       2.127e-02          -0.057           0.052           0.997       2.656e-02          0.1065
 426       4.648e+00       4.937e+00       1.363e-02          -0.077           0.070           0.995       2.020e-02          0.0160
 427       4.557e+00       4.937e+00       6.383e-03          -0.090           0.082           0.993       1.264e-02         -0.1267
 428       4.504e+00       4.937e+00       1.571e-03          -0.097           0.088           0.991       4.301e-03         -0.4645
Strip 34
 429       6.119e+00       5.119e+00       3.508e-04           0.065          -0.059           0.996       3.543e-03          0.0385
 430       6.087e+00       5.119e+00       2.388e-03           0.062          -0.057           0.996       1.042e-02          0.0641
 431       6.015e+00       5.119e+00       6.763e-03           0.056          -0.051           0.997       1.668e-02          0.0894
 432       5.906e+00       5.119e+00       1.261e-02           0.047          -0.043           0.998       2.196e-02          0.1116
 433       5.767e+00       5.119e+00       1.878e-02           0.037          -0.033           0.999       2.596e-02          0.1313
 434       5.607e+00       5.119e+00       2.415e-02           0.024          -0.022           0.999       2.844e-02          0.1485
 435       5.433e+00       5.119e+00       2.778e-02           0.011          -0.010           1.000       2.928e-02          0.1683
 436       5.257e+00       5.119e+00       2.901e-02          -0.006           0.005           1.000       2.843e-02          0.1867
 437       5.089e+00       5.119e+00       2.700e-02          -0.033           0.030           0.999       2.595e-02          0.1614
 438       4.938e+00       5.119e+00       2.127e-02          -0.057           0.052           0.997       2.198e-02          0.1023
 439       4.814e+00       5.119e+00       1.363e-02          -0.077           0.070           0.995       1.672e-02          0.0117
 440       4.722e+00       5.119e+00       6.383e-03          -0.090           0.082           0.993       1.046e-02         -0.1326
 441       4.670e+00       5.119e+00       1.571e-03          -0.097           0.088           0.991       3.560e-03         -0.4777
Strip 35
 442       6.253e+00       5.267e+00       3.508e-04           0.065          -0.059           0.996       2.781e-03          0.0329
 443       6.221e+00       5.267e+00       2.388e-03           0.062          -0.057           0.996       8.179e-03          0.0543
 444       6.149e+00       5.267e+00       6.763e-03           0.056          -0.051           0.997       1.309e-02          0.0754
 445       6.040e+00       5.267e+00       1.261e-02           0.047          -0.043           0.998       1.724e-02          0.0938
 446       5.901e+00       5.267e+00       1.878e-02           0.037          -0.033           0.999       2.038e-02          0.1105
 447       5.741e+00       5.267e+00       2.415e-02           0.024          -0.022           0.999       2.233e-02          0.1260
 448       5.567e+00       5.267e+00       2.778e-02           0.011          -0.010           1.000       2.299e-02          0.1469
 449       5.391e+00       5.267e+00       2.901e-02          -0.006           0.005           1.000       2.232e-02          0.1707
 450       5.223e+00       5.267e+00       2.700e-02          -0.033           0.030           0.999       2.037e-02          0.1532
 451       5.072e+00       5.267e+00       2.127e-02          -0.057           0.052           0.997       1.725e-02          0.0989
 452       4.948e+00       5.267e+00       1.363e-02          -0.077           0.070           0.995       1.313e-02          0.0089
 453       4.857e+00       5.267e+00       6.383e-03          -0.090           0.082           0.993       8.211e-03         -0.1370
 454       4.804e+00       5.267e+00       1.571e-03          -0.097           0.088           0.991       2.794e-03         -0.4884
Strip 36
 455       6.354e+00       5.378e+00       3.508e-04           0.065          -0.059           0.996       2.000e-03          0.0264
 456       6.322e+00       5.378e+00       2.388e-03           0.062          -0.057           0.996       5.882e-03          0.0433
 457       6.250e+00       5.378e+00       6.763e-03           0.056          -0.051           0.997       9.417e-03          0.0597
 458       6.141e+00       5.378e+00       1.261e-02           0.047          -0.043           0.998       1.240e-02          0.0738
 459       6.003e+00       5.378e+00       1.878e-02           0.037          -0.033           0.999       1.465e-02          0.0865
 460       5.842e+00       5.378e+00       2.415e-02           0.024          -0.022           0.999       1.606e-02          0.0982
 461       5.669e+00       5.378e+00       2.778e-02           0.011          -0.010           1.000       1.653e-02          0.1165
 462       5.493e+00       5.378e+00       2.901e-02          -0.006           0.005           1.000       1.605e-02          0.1425
 463       5.325e+00       5.378e+00       2.700e-02          -0.033           0.030           0.999       1.465e-02          0.1354
 464       5.174e+00       5.378e+00       2.127e-02          -0.057           0.052           0.997       1.241e-02          0.0961
 465       5.049e+00       5.378e+00       1.363e-02          -0.077           0.070           0.995       9.440e-03          0.0124
 466       4.958e+00       5.378e+00       6.383e-03          -0.090           0.082           0.993       5.905e-03         -0.1355
 467       4.905e+00       5.378e+00       1.571e-03          -0.097           0.088           0.991       2.010e-03         -0.4891
Strip 37
 468       6.422e+00       5.453e+00       3.508e-04           0.065          -0.059           0.996       1.206e-03          0.0191
 469       6.390e+00       5.453e+00       2.388e-03           0.062          -0.057           0.996       3.546e-03          0.0312
 470       6.318e+00       5.453e+00       6.763e-03           0.056          -0.051           0.997       5.676e-03          0.0429
 471       6.209e+00       5.453e+00       1.261e-02           0.047          -0.043           0.998       7.473e-03          0.0525
 472       6.071e+00       5.453e+00       1.878e-02           0.037          -0.033           0.999       8.833e-03          0.0609
 473       5.910e+00       5.453e+00       2.415e-02           0.024          -0.022           0.999       9.679e-03          0.0685
 474       5.737e+00       5.453e+00       2.778e-02           0.011          -0.010           1.000       9.964e-03          0.0814
 475       5.561e+00       5.453e+00       2.901e-02          -0.006           0.005           1.000       9.674e-03          0.1034
 476       5.393e+00       5.453e+00       2.700e-02          -0.033           0.030           0.999       8.830e-03          0.1020
 477       5.242e+00       5.453e+00       2.127e-02          -0.057           0.052           0.997       7.480e-03          0.0810
 478       5.117e+00       5.453e+00       1.363e-02          -0.077           0.070           0.995       5.690e-03          0.0272
 479       5.026e+00       5.453e+00       6.383e-03          -0.090           0.082           0.993       3.560e-03         -0.1147
 480       4.973e+00       5.453e+00       1.571e-03          -0.097           0.088           0.991       1.211e-03         -0.4659
Strip 38
 481       6.456e+00       5.491e+00       3.508e-04           0.065          -0.059           0.996       4.028e-04          0.0135
 482       6.424e+00       5.491e+00       2.388e-03           0.062          -0.057           0.996       1.185e-03          0.0194
 483       6.352e+00       5.491e+00       6.763e-03           0.056          -0.051           0.997       1.896e-03          0.0257
 484       6.243e+00       5.491e+00       1.261e-02           0.047          -0.043           0.998       2.497e-03          0.0309
 485       6.105e+00       5.491e+00       1.878e-02           0.037          -0.033           0.999       2.951e-03          0.0357
 486       5.944e+00       5.491e+00       2.415e-02           0.024          -0.022           0.999       3.234e-03          0.0398
 487       5.771e+00       5.491e+00       2.778e-02           0.011          -0.010           1.000       3.329e-03          0.0474
 488       5.595e+00       5.491e+00       2.901e-02          -0.006           0.005           1.000       3.232e-03          0.0610
 489       5.427e+00       5.491e+00       2.700e-02          -0.033           0.030           0.999       2.950e-03          0.0609
 490       5.276e+00       5.491e+00       2.127e-02          -0.057           0.052           0.997       2.499e-03          0.0500
 491       5.151e+00       5.491e+00       1.363e-02          -0.077           0.070           0.995       1.901e-03          0.0239
 492       5.060e+00       5.491e+00       6.383e-03          -0.090           0.082           0.993       1.189e-03         -0.0474
 493       5.007e+00       5.491e+00       1.571e-03          -0.097           0.088           0.991       4.047e-04         -0.3892










