xflr5 v6.47

Flying_wing_9
T1-55.0 m/s-VLM2-Inviscid
QInf  =   55.000000 m/s
Alpha =    0.000000
Beta  =    0.000°
Phi   =    0.000°
Ctrl  =    0.000
CL    =    0.133060
Cy    =    0.000000
Cd    =    0.000885     ICd   =    0.000885     PCd   =    0.000000
Cl   = 6.53289e-17
Cm   =  -0.0165744
ICn   =   -0.000000     PCn   =   -0.000000 
XCP   =    2.802723     YCP   =   -0.000000     ZCP   =    0.025303  
XNP   =    0.000000
Bending = 4925.341291

Main Wing
  y-span        Chord      Ai         Cl        PCd          ICd        CmGeom    CmAirf@chord/4    XTrtop    XTrBot      XCP       BM
   -5.4906     1.4700    -1.643    0.032595    0.000000    0.000926   -0.048917   -0.010672     0.0000    0.0000    0.5805    0.0000
   -5.4531     1.4700    -1.542    0.054963    0.000000    0.001478   -0.081889   -0.017882     0.0000    0.0000    0.5757    0.0627
   -5.3783     1.4700    -1.407    0.076862    0.000000    0.001888   -0.111457   -0.024725     0.0000    0.0000    0.5718    0.8178
   -5.2668     1.4700    -1.249    0.095686    0.000000    0.002085   -0.133280   -0.030562     0.0000    0.0000    0.5694    4.1252
   -5.1194     1.4700    -1.078    0.110782    0.000000    0.002084   -0.146013   -0.035163     0.0000    0.0000    0.5674   13.4933
   -4.9369     1.4700    -0.907    0.122149    0.000000    0.001935   -0.149684   -0.038481     0.0000    0.0000    0.5650   34.1945
   -4.7208     1.4700    -0.752    0.130257    0.000000    0.001710   -0.145321   -0.040665     0.0000    0.0000    0.5622   73.1043
   -4.4723     1.4700    -0.622    0.135825    0.000000    0.001476   -0.134447   -0.042010     0.0000    0.0000    0.5593   138.3604
   -4.1934     1.4700    -0.521    0.139551    0.000000    0.001268   -0.118534   -0.042821     0.0000    0.0000    0.5569   238.9471
   -3.8858     1.4700    -0.444    0.141948    0.000000    0.001099   -0.098733   -0.043322     0.0000    0.0000    0.5552   384.2695
   -3.5516     1.4700    -0.385    0.143346    0.000000    0.000964   -0.075904   -0.043645     0.0000    0.0000    0.5545   583.7271
   -3.1932     1.4700    -0.341    0.143937    0.000000    0.000856   -0.050734   -0.043865     0.0000    0.0000    0.5548   846.2875
   -2.8130     1.4700    -0.307    0.143815    0.000000    0.000770   -0.023837   -0.044028     0.0000    0.0000    0.5561   1180.0656
   -2.4135     1.4700    -0.280    0.142999    0.000000    0.000698    0.004172   -0.044165     0.0000    0.0000    0.5588   1591.9133
   -1.9976     1.4700    -0.257    0.141426    0.000000    0.000634    0.032602   -0.044305     0.0000    0.0000    0.5633   2087.0274
   -1.5680     1.4700    -0.235    0.138934    0.000000    0.000570    0.060582   -0.044497     0.0000    0.0000    0.5703   2668.5751
   -1.1277     1.4700    -0.206    0.135208    0.000000    0.000486    0.086864   -0.044851     0.0000    0.0000    0.5817   3337.3317
   -0.6797     1.4700    -0.148    0.129685    0.000000    0.000335    0.109398   -0.045680     0.0000    0.0000    0.6022   4091.3097
   -0.2271     1.4700     0.054    0.121553    0.000000   -0.000115    0.124641   -0.047933     0.0000    0.0000    0.6443   4925.3413
    0.2271     1.4700     0.054    0.121553    0.000000   -0.000115    0.124641   -0.047933     0.0000    0.0000    0.6443   4925.3413
    0.6797     1.4700    -0.148    0.129685    0.000000    0.000335    0.109398   -0.045680     0.0000    0.0000    0.6022   4091.3097
    1.1277     1.4700    -0.206    0.135208    0.000000    0.000486    0.086864   -0.044851     0.0000    0.0000    0.5817   3337.3317
    1.5680     1.4700    -0.235    0.138934    0.000000    0.000570    0.060582   -0.044497     0.0000    0.0000    0.5703   2668.5751
    1.9976     1.4700    -0.257    0.141426    0.000000    0.000634    0.032602   -0.044305     0.0000    0.0000    0.5633   2087.0274
    2.4135     1.4700    -0.280    0.142999    0.000000    0.000698    0.004172   -0.044165     0.0000    0.0000    0.5588   1591.9133
    2.8130     1.4700    -0.307    0.143815    0.000000    0.000770   -0.023837   -0.044028     0.0000    0.0000    0.5561   1180.0656
    3.1932     1.4700    -0.341    0.143937    0.000000    0.000856   -0.050734   -0.043865     0.0000    0.0000    0.5548   846.2875
    3.5516     1.4700    -0.385    0.143346    0.000000    0.000964   -0.075904   -0.043645     0.0000    0.0000    0.5545   583.7271
    3.8858     1.4700    -0.444    0.141948    0.000000    0.001099   -0.098733   -0.043322     0.0000    0.0000    0.5552   384.2695
    4.1934     1.4700    -0.521    0.139551    0.000000    0.001268   -0.118534   -0.042821     0.0000    0.0000    0.5569   238.9471
    4.4723     1.4700    -0.622    0.135825    0.000000    0.001476   -0.134447   -0.042010     0.0000    0.0000    0.5593   138.3604
    4.7208     1.4700    -0.752    0.130257    0.000000    0.001710   -0.145321   -0.040665     0.0000    0.0000    0.5622   73.1043
    4.9369     1.4700    -0.907    0.122149    0.000000    0.001935   -0.149684   -0.038481     0.0000    0.0000    0.5650   34.1945
    5.1194     1.4700    -1.078    0.110782    0.000000    0.002084   -0.146013   -0.035163     0.0000    0.0000    0.5674   13.4933
    5.2668     1.4700    -1.249    0.095686    0.000000    0.002085   -0.133280   -0.030562     0.0000    0.0000    0.5694    4.1252
    5.3783     1.4700    -1.407    0.076862    0.000000    0.001888   -0.111457   -0.024725     0.0000    0.0000    0.5718    0.8178
    5.4531     1.4700    -1.542    0.054963    0.000000    0.001478   -0.081889   -0.017882     0.0000    0.0000    0.5757    0.0627
    5.4906     1.4700    -1.643    0.032595    0.000000    0.000926   -0.048917   -0.010672     0.0000    0.0000    0.5805    0.0000


Main Wing Cp Coefficients
 Panel     CtrlPt.x        CtrlPt.y        CtrlPt.z       Nx      Ny       Nz        Area       Cp
Main WingCp Coefficients
Strip 1
   0       5.458e+00      -5.491e+00       3.508e-04           0.065           0.048           0.997       4.025e-04          0.0149
   1       5.426e+00      -5.491e+00       2.388e-03           0.062           0.045           0.997       1.184e-03          0.0214
   2       5.354e+00      -5.491e+00       6.763e-03           0.056           0.041           0.998       1.895e-03          0.0280
   3       5.245e+00      -5.491e+00       1.261e-02           0.048           0.035           0.998       2.496e-03          0.0334
   4       5.106e+00      -5.491e+00       1.878e-02           0.037           0.027           0.999       2.950e-03          0.0382
   5       4.946e+00      -5.491e+00       2.415e-02           0.024           0.018           1.000       3.233e-03          0.0423
   6       4.772e+00      -5.491e+00       2.778e-02           0.011           0.008           1.000       3.329e-03          0.0498
   7       4.597e+00      -5.491e+00       2.901e-02          -0.006          -0.004           1.000       3.232e-03          0.0634
   8       4.428e+00      -5.491e+00       2.700e-02          -0.033          -0.024           0.999       2.950e-03          0.0621
   9       4.277e+00      -5.491e+00       2.127e-02          -0.057          -0.042           0.997       2.498e-03          0.0494
  10       4.153e+00      -5.491e+00       1.363e-02          -0.077          -0.056           0.995       1.899e-03          0.0205
  11       4.062e+00      -5.491e+00       6.383e-03          -0.090          -0.066           0.994       1.188e-03         -0.0571
  12       4.009e+00      -5.491e+00       1.571e-03          -0.097          -0.071           0.993       4.042e-04         -0.4255
Strip 2
  13       5.431e+00      -5.453e+00       3.508e-04           0.065           0.048           0.997       1.205e-03          0.0214
  14       5.399e+00      -5.453e+00       2.388e-03           0.062           0.045           0.997       3.543e-03          0.0346
  15       5.327e+00      -5.453e+00       6.763e-03           0.056           0.041           0.998       5.673e-03          0.0469
  16       5.218e+00      -5.453e+00       1.261e-02           0.048           0.035           0.998       7.470e-03          0.0567
  17       5.079e+00      -5.453e+00       1.878e-02           0.037           0.027           0.999       8.831e-03          0.0653
  18       4.919e+00      -5.453e+00       2.415e-02           0.024           0.018           1.000       9.678e-03          0.0726
  19       4.745e+00      -5.453e+00       2.778e-02           0.011           0.008           1.000       9.964e-03          0.0855
  20       4.569e+00      -5.453e+00       2.901e-02          -0.006          -0.004           1.000       9.674e-03          0.1074
  21       4.401e+00      -5.453e+00       2.700e-02          -0.033          -0.024           0.999       8.829e-03          0.1041
  22       4.250e+00      -5.453e+00       2.127e-02          -0.057          -0.042           0.997       7.476e-03          0.0801
  23       4.126e+00      -5.453e+00       1.363e-02          -0.077          -0.056           0.995       5.685e-03          0.0223
  24       4.034e+00      -5.453e+00       6.383e-03          -0.090          -0.066           0.994       3.555e-03         -0.1308
  25       3.982e+00      -5.453e+00       1.571e-03          -0.097          -0.071           0.993       1.210e-03         -0.5290
Strip 3
  26       5.376e+00      -5.378e+00       3.508e-04           0.065           0.048           0.997       1.999e-03          0.0291
  27       5.344e+00      -5.378e+00       2.388e-03           0.062           0.045           0.997       5.879e-03          0.0474
  28       5.272e+00      -5.378e+00       6.763e-03           0.056           0.041           0.998       9.413e-03          0.0650
  29       5.164e+00      -5.378e+00       1.261e-02           0.048           0.035           0.998       1.239e-02          0.0796
  30       5.025e+00      -5.378e+00       1.878e-02           0.037           0.027           0.999       1.465e-02          0.0924
  31       4.864e+00      -5.378e+00       2.415e-02           0.024           0.018           1.000       1.606e-02          0.1038
  32       4.691e+00      -5.378e+00       2.778e-02           0.011           0.008           1.000       1.653e-02          0.1218
  33       4.515e+00      -5.378e+00       2.901e-02          -0.006          -0.004           1.000       1.605e-02          0.1479
  34       4.347e+00      -5.378e+00       2.700e-02          -0.033          -0.024           0.999       1.465e-02          0.1388
  35       4.196e+00      -5.378e+00       2.127e-02          -0.057          -0.042           0.997       1.240e-02          0.0964
  36       4.071e+00      -5.378e+00       1.363e-02          -0.077          -0.056           0.995       9.432e-03          0.0064
  37       3.980e+00      -5.378e+00       6.383e-03          -0.090          -0.066           0.994       5.898e-03         -0.1598
  38       3.928e+00      -5.378e+00       1.571e-03          -0.097          -0.071           0.993       2.007e-03         -0.5648
Strip 4
  39       5.295e+00      -5.267e+00       3.508e-04           0.065           0.048           0.997       2.779e-03          0.0358
  40       5.263e+00      -5.267e+00       2.388e-03           0.062           0.045           0.997       8.174e-03          0.0590
  41       5.191e+00      -5.267e+00       6.763e-03           0.056           0.041           0.998       1.309e-02          0.0815
  42       5.082e+00      -5.267e+00       1.261e-02           0.048           0.035           0.998       1.723e-02          0.1007
  43       4.944e+00      -5.267e+00       1.878e-02           0.037           0.027           0.999       2.037e-02          0.1175
  44       4.783e+00      -5.267e+00       2.415e-02           0.024           0.018           1.000       2.232e-02          0.1326
  45       4.610e+00      -5.267e+00       2.778e-02           0.011           0.008           1.000       2.298e-02          0.1534
  46       4.434e+00      -5.267e+00       2.901e-02          -0.006          -0.004           1.000       2.232e-02          0.1779
  47       4.266e+00      -5.267e+00       2.700e-02          -0.033          -0.024           0.999       2.037e-02          0.1588
  48       4.115e+00      -5.267e+00       2.127e-02          -0.057          -0.042           0.997       1.725e-02          0.1004
  49       3.990e+00      -5.267e+00       1.363e-02          -0.077          -0.056           0.995       1.311e-02          0.0009
  50       3.899e+00      -5.267e+00       6.383e-03          -0.090          -0.066           0.994       8.201e-03         -0.1644
  51       3.846e+00      -5.267e+00       1.571e-03          -0.097          -0.071           0.993       2.791e-03         -0.5694
Strip 5
  52       5.188e+00      -5.119e+00       3.508e-04           0.065           0.048           0.997       3.541e-03          0.0416
  53       5.156e+00      -5.119e+00       2.388e-03           0.062           0.045           0.997       1.041e-02          0.0691
  54       5.084e+00      -5.119e+00       6.763e-03           0.056           0.041           0.998       1.667e-02          0.0960
  55       4.975e+00      -5.119e+00       1.261e-02           0.048           0.035           0.998       2.195e-02          0.1190
  56       4.836e+00      -5.119e+00       1.878e-02           0.037           0.027           0.999       2.595e-02          0.1390
  57       4.676e+00      -5.119e+00       2.415e-02           0.024           0.018           1.000       2.844e-02          0.1562
  58       4.502e+00      -5.119e+00       2.778e-02           0.011           0.008           1.000       2.928e-02          0.1766
  59       4.327e+00      -5.119e+00       2.901e-02          -0.006          -0.004           1.000       2.843e-02          0.1963
  60       4.158e+00      -5.119e+00       2.700e-02          -0.033          -0.024           0.999       2.595e-02          0.1691
  61       4.007e+00      -5.119e+00       2.127e-02          -0.057          -0.042           0.997       2.197e-02          0.1042
  62       3.883e+00      -5.119e+00       1.363e-02          -0.077          -0.056           0.995       1.671e-02          0.0032
  63       3.792e+00      -5.119e+00       6.383e-03          -0.090          -0.066           0.994       1.045e-02         -0.1604
  64       3.739e+00      -5.119e+00       1.571e-03          -0.097          -0.071           0.993       3.555e-03         -0.5592
Strip 6
  65       5.055e+00      -4.937e+00       3.508e-04           0.065           0.048           0.997       4.278e-03          0.0464
  66       5.023e+00      -4.937e+00       2.388e-03           0.062           0.045           0.997       1.258e-02          0.0774
  67       4.951e+00      -4.937e+00       6.763e-03           0.056           0.041           0.998       2.014e-02          0.1078
  68       4.842e+00      -4.937e+00       1.261e-02           0.048           0.035           0.998       2.652e-02          0.1337
  69       4.704e+00      -4.937e+00       1.878e-02           0.037           0.027           0.999       3.136e-02          0.1556
  70       4.543e+00      -4.937e+00       2.415e-02           0.024           0.018           1.000       3.436e-02          0.1730
  71       4.370e+00      -4.937e+00       2.778e-02           0.011           0.008           1.000       3.538e-02          0.1913
  72       4.194e+00      -4.937e+00       2.901e-02          -0.006          -0.004           1.000       3.435e-02          0.2071
  73       4.026e+00      -4.937e+00       2.700e-02          -0.033          -0.024           0.999       3.135e-02          0.1759
  74       3.875e+00      -4.937e+00       2.127e-02          -0.057          -0.042           0.997       2.655e-02          0.1091
  75       3.750e+00      -4.937e+00       1.363e-02          -0.077          -0.056           0.995       2.019e-02          0.0081
  76       3.659e+00      -4.937e+00       6.383e-03          -0.090          -0.066           0.994       1.262e-02         -0.1535
  77       3.607e+00      -4.937e+00       1.571e-03          -0.097          -0.071           0.993       4.295e-03         -0.5436
Strip 7
  78       4.898e+00      -4.721e+00       3.508e-04           0.065           0.048           0.997       4.986e-03          0.0501
  79       4.866e+00      -4.721e+00       2.388e-03           0.062           0.045           0.997       1.466e-02          0.0836
  80       4.794e+00      -4.721e+00       6.763e-03           0.056           0.041           0.998       2.348e-02          0.1165
  81       4.685e+00      -4.721e+00       1.261e-02           0.048           0.035           0.998       3.091e-02          0.1442
  82       4.547e+00      -4.721e+00       1.878e-02           0.037           0.027           0.999       3.655e-02          0.1668
  83       4.386e+00      -4.721e+00       2.415e-02           0.024           0.018           1.000       4.005e-02          0.1837
  84       4.213e+00      -4.721e+00       2.778e-02           0.011           0.008           1.000       4.123e-02          0.2003
  85       4.037e+00      -4.721e+00       2.901e-02          -0.006          -0.004           1.000       4.003e-02          0.2140
  86       3.868e+00      -4.721e+00       2.700e-02          -0.033          -0.024           0.999       3.654e-02          0.1814
  87       3.718e+00      -4.721e+00       2.127e-02          -0.057          -0.042           0.997       3.094e-02          0.1139
  88       3.593e+00      -4.721e+00       1.363e-02          -0.077          -0.056           0.995       2.353e-02          0.0132
  89       3.502e+00      -4.721e+00       6.383e-03          -0.090          -0.066           0.994       1.471e-02         -0.1464
  90       3.449e+00      -4.721e+00       1.571e-03          -0.097          -0.071           0.993       5.006e-03         -0.5276
Strip 8
  91       4.717e+00      -4.472e+00       3.508e-04           0.065           0.048           0.997       5.660e-03          0.0525
  92       4.686e+00      -4.472e+00       2.388e-03           0.062           0.045           0.997       1.665e-02          0.0877
  93       4.613e+00      -4.472e+00       6.763e-03           0.056           0.041           0.998       2.665e-02          0.1222
  94       4.505e+00      -4.472e+00       1.261e-02           0.048           0.035           0.998       3.509e-02          0.1509
  95       4.366e+00      -4.472e+00       1.878e-02           0.037           0.027           0.999       4.148e-02          0.1738
  96       4.205e+00      -4.472e+00       2.415e-02           0.024           0.018           1.000       4.546e-02          0.1903
  97       4.032e+00      -4.472e+00       2.778e-02           0.011           0.008           1.000       4.681e-02          0.2061
  98       3.856e+00      -4.472e+00       2.901e-02          -0.006          -0.004           1.000       4.544e-02          0.2189
  99       3.688e+00      -4.472e+00       2.700e-02          -0.033          -0.024           0.999       4.148e-02          0.1856
 100       3.537e+00      -4.472e+00       2.127e-02          -0.057          -0.042           0.997       3.512e-02          0.1179
 101       3.412e+00      -4.472e+00       1.363e-02          -0.077          -0.056           0.995       2.671e-02          0.0176
 102       3.321e+00      -4.472e+00       6.383e-03          -0.090          -0.066           0.994       1.670e-02         -0.1402
 103       3.269e+00      -4.472e+00       1.571e-03          -0.097          -0.071           0.993       5.683e-03         -0.5138
Strip 9
 104       4.514e+00      -4.193e+00       3.508e-04           0.065           0.048           0.997       6.295e-03          0.0540
 105       4.483e+00      -4.193e+00       2.388e-03           0.062           0.045           0.997       1.851e-02          0.0903
 106       4.410e+00      -4.193e+00       6.763e-03           0.056           0.041           0.998       2.964e-02          0.1256
 107       4.302e+00      -4.193e+00       1.261e-02           0.048           0.035           0.998       3.903e-02          0.1550
 108       4.163e+00      -4.193e+00       1.878e-02           0.037           0.027           0.999       4.614e-02          0.1781
 109       4.002e+00      -4.193e+00       2.415e-02           0.024           0.018           1.000       5.057e-02          0.1944
 110       3.829e+00      -4.193e+00       2.778e-02           0.011           0.008           1.000       5.206e-02          0.2098
 111       3.653e+00      -4.193e+00       2.901e-02          -0.006          -0.004           1.000       5.055e-02          0.2223
 112       3.485e+00      -4.193e+00       2.700e-02          -0.033          -0.024           0.999       4.613e-02          0.1887
 113       3.334e+00      -4.193e+00       2.127e-02          -0.057          -0.042           0.997       3.906e-02          0.1210
 114       3.209e+00      -4.193e+00       1.363e-02          -0.077          -0.056           0.995       2.971e-02          0.0209
 115       3.118e+00      -4.193e+00       6.383e-03          -0.090          -0.066           0.994       1.858e-02         -0.1356
 116       3.066e+00      -4.193e+00       1.571e-03          -0.097          -0.071           0.993       6.321e-03         -0.5033
Strip 10
 117       4.291e+00      -3.886e+00       3.508e-04           0.065           0.048           0.997       6.888e-03          0.0549
 118       4.259e+00      -3.886e+00       2.388e-03           0.062           0.045           0.997       2.026e-02          0.0918
 119       4.187e+00      -3.886e+00       6.763e-03           0.056           0.041           0.998       3.243e-02          0.1278
 120       4.078e+00      -3.886e+00       1.261e-02           0.048           0.035           0.998       4.270e-02          0.1575
 121       3.939e+00      -3.886e+00       1.878e-02           0.037           0.027           0.999       5.048e-02          0.1808
 122       3.779e+00      -3.886e+00       2.415e-02           0.024           0.018           1.000       5.532e-02          0.1970
 123       3.605e+00      -3.886e+00       2.778e-02           0.011           0.008           1.000       5.696e-02          0.2123
 124       3.429e+00      -3.886e+00       2.901e-02          -0.006          -0.004           1.000       5.530e-02          0.2246
 125       3.261e+00      -3.886e+00       2.700e-02          -0.033          -0.024           0.999       5.047e-02          0.1908
 126       3.110e+00      -3.886e+00       2.127e-02          -0.057          -0.042           0.997       4.274e-02          0.1230
 127       2.986e+00      -3.886e+00       1.363e-02          -0.077          -0.056           0.995       3.250e-02          0.0231
 128       2.894e+00      -3.886e+00       6.383e-03          -0.090          -0.066           0.994       2.032e-02         -0.1326
 129       2.842e+00      -3.886e+00       1.571e-03          -0.097          -0.071           0.993       6.915e-03         -0.4966
Strip 11
 130       4.048e+00      -3.552e+00       3.508e-04           0.065           0.048           0.997       7.433e-03          0.0555
 131       4.016e+00      -3.552e+00       2.388e-03           0.062           0.045           0.997       2.186e-02          0.0928
 132       3.944e+00      -3.552e+00       6.763e-03           0.056           0.041           0.998       3.500e-02          0.1291
 133       3.835e+00      -3.552e+00       1.261e-02           0.048           0.035           0.998       4.609e-02          0.1590
 134       3.696e+00      -3.552e+00       1.878e-02           0.037           0.027           0.999       5.448e-02          0.1824
 135       3.536e+00      -3.552e+00       2.415e-02           0.024           0.018           1.000       5.970e-02          0.1987
 136       3.362e+00      -3.552e+00       2.778e-02           0.011           0.008           1.000       6.147e-02          0.2139
 137       3.186e+00      -3.552e+00       2.901e-02          -0.006          -0.004           1.000       5.968e-02          0.2260
 138       3.018e+00      -3.552e+00       2.700e-02          -0.033          -0.024           0.999       5.447e-02          0.1921
 139       2.867e+00      -3.552e+00       2.127e-02          -0.057          -0.042           0.997       4.612e-02          0.1241
 140       2.743e+00      -3.552e+00       1.363e-02          -0.077          -0.056           0.995       3.507e-02          0.0242
 141       2.651e+00      -3.552e+00       6.383e-03          -0.090          -0.066           0.994       2.193e-02         -0.1312
 142       2.599e+00      -3.552e+00       1.571e-03          -0.097          -0.071           0.993       7.463e-03         -0.4937
Strip 12
 143       3.787e+00      -3.193e+00       3.508e-04           0.065           0.048           0.997       7.927e-03          0.0558
 144       3.755e+00      -3.193e+00       2.388e-03           0.062           0.045           0.997       2.331e-02          0.0933
 145       3.683e+00      -3.193e+00       6.763e-03           0.056           0.041           0.998       3.733e-02          0.1298
 146       3.574e+00      -3.193e+00       1.261e-02           0.048           0.035           0.998       4.915e-02          0.1599
 147       3.436e+00      -3.193e+00       1.878e-02           0.037           0.027           0.999       5.810e-02          0.1834
 148       3.275e+00      -3.193e+00       2.415e-02           0.024           0.018           1.000       6.368e-02          0.1996
 149       3.102e+00      -3.193e+00       2.778e-02           0.011           0.008           1.000       6.556e-02          0.2147
 150       2.926e+00      -3.193e+00       2.901e-02          -0.006          -0.004           1.000       6.365e-02          0.2267
 151       2.757e+00      -3.193e+00       2.700e-02          -0.033          -0.024           0.999       5.809e-02          0.1926
 152       2.607e+00      -3.193e+00       2.127e-02          -0.057          -0.042           0.997       4.919e-02          0.1243
 153       2.482e+00      -3.193e+00       1.363e-02          -0.077          -0.056           0.995       3.741e-02          0.0241
 154       2.391e+00      -3.193e+00       6.383e-03          -0.090          -0.066           0.994       2.339e-02         -0.1316
 155       2.338e+00      -3.193e+00       1.571e-03          -0.097          -0.071           0.993       7.959e-03         -0.4949
Strip 13
 156       3.510e+00      -2.813e+00       3.508e-04           0.065           0.048           0.997       8.368e-03          0.0560
 157       3.479e+00      -2.813e+00       2.388e-03           0.062           0.045           0.997       2.461e-02          0.0937
 158       3.406e+00      -2.813e+00       6.763e-03           0.056           0.041           0.998       3.940e-02          0.1302
 159       3.298e+00      -2.813e+00       1.261e-02           0.048           0.035           0.998       5.188e-02          0.1604
 160       3.159e+00      -2.813e+00       1.878e-02           0.037           0.027           0.999       6.133e-02          0.1838
 161       2.998e+00      -2.813e+00       2.415e-02           0.024           0.018           1.000       6.721e-02          0.2000
 162       2.825e+00      -2.813e+00       2.778e-02           0.011           0.008           1.000       6.920e-02          0.2150
 163       2.649e+00      -2.813e+00       2.901e-02          -0.006          -0.004           1.000       6.718e-02          0.2267
 164       2.481e+00      -2.813e+00       2.700e-02          -0.033          -0.024           0.999       6.132e-02          0.1923
 165       2.330e+00      -2.813e+00       2.127e-02          -0.057          -0.042           0.997       5.192e-02          0.1237
 166       2.205e+00      -2.813e+00       1.363e-02          -0.077          -0.056           0.995       3.948e-02          0.0230
 167       2.114e+00      -2.813e+00       6.383e-03          -0.090          -0.066           0.994       2.469e-02         -0.1338
 168       2.062e+00      -2.813e+00       1.571e-03          -0.097          -0.071           0.993       8.401e-03         -0.5005
Strip 14
 169       3.220e+00      -2.414e+00       3.508e-04           0.065           0.048           0.997       8.751e-03          0.0561
 170       3.188e+00      -2.414e+00       2.388e-03           0.062           0.045           0.997       2.574e-02          0.0938
 171       3.116e+00      -2.414e+00       6.763e-03           0.056           0.041           0.998       4.121e-02          0.1304
 172       3.007e+00      -2.414e+00       1.261e-02           0.048           0.035           0.998       5.426e-02          0.1606
 173       2.869e+00      -2.414e+00       1.878e-02           0.037           0.027           0.999       6.414e-02          0.1839
 174       2.708e+00      -2.414e+00       2.415e-02           0.024           0.018           1.000       7.029e-02          0.2000
 175       2.535e+00      -2.414e+00       2.778e-02           0.011           0.008           1.000       7.237e-02          0.2147
 176       2.359e+00      -2.414e+00       2.901e-02          -0.006          -0.004           1.000       7.026e-02          0.2261
 177       2.190e+00      -2.414e+00       2.700e-02          -0.033          -0.024           0.999       6.412e-02          0.1913
 178       2.040e+00      -2.414e+00       2.127e-02          -0.057          -0.042           0.997       5.430e-02          0.1221
 179       1.915e+00      -2.414e+00       1.363e-02          -0.077          -0.056           0.995       4.129e-02          0.0205
 180       1.824e+00      -2.414e+00       6.383e-03          -0.090          -0.066           0.994       2.582e-02         -0.1381
 181       1.771e+00      -2.414e+00       1.571e-03          -0.097          -0.071           0.993       8.786e-03         -0.5111
Strip 15
 182       2.917e+00      -1.998e+00       3.508e-04           0.065           0.048           0.997       9.074e-03          0.0561
 183       2.886e+00      -1.998e+00       2.388e-03           0.062           0.045           0.997       2.669e-02          0.0938
 184       2.813e+00      -1.998e+00       6.763e-03           0.056           0.041           0.998       4.273e-02          0.1304
 185       2.705e+00      -1.998e+00       1.261e-02           0.048           0.035           0.998       5.626e-02          0.1605
 186       2.566e+00      -1.998e+00       1.878e-02           0.037           0.027           0.999       6.651e-02          0.1837
 187       2.405e+00      -1.998e+00       2.415e-02           0.024           0.018           1.000       7.289e-02          0.1995
 188       2.232e+00      -1.998e+00       2.778e-02           0.011           0.008           1.000       7.504e-02          0.2140
 189       2.056e+00      -1.998e+00       2.901e-02          -0.006          -0.004           1.000       7.286e-02          0.2249
 190       1.888e+00      -1.998e+00       2.700e-02          -0.033          -0.024           0.999       6.649e-02          0.1895
 191       1.737e+00      -1.998e+00       2.127e-02          -0.057          -0.042           0.997       5.631e-02          0.1195
 192       1.612e+00      -1.998e+00       1.363e-02          -0.077          -0.056           0.995       4.282e-02          0.0164
 193       1.521e+00      -1.998e+00       6.383e-03          -0.090          -0.066           0.994       2.678e-02         -0.1451
 194       1.469e+00      -1.998e+00       1.571e-03          -0.097          -0.071           0.993       9.111e-03         -0.5281
Strip 16
 195       2.605e+00      -1.568e+00       3.508e-04           0.065           0.048           0.997       9.336e-03          0.0561
 196       2.573e+00      -1.568e+00       2.388e-03           0.062           0.045           0.997       2.746e-02          0.0938
 197       2.501e+00      -1.568e+00       6.763e-03           0.056           0.041           0.998       4.396e-02          0.1303
 198       2.392e+00      -1.568e+00       1.261e-02           0.048           0.035           0.998       5.788e-02          0.1603
 199       2.254e+00      -1.568e+00       1.878e-02           0.037           0.027           0.999       6.843e-02          0.1833
 200       2.093e+00      -1.568e+00       2.415e-02           0.024           0.018           1.000       7.499e-02          0.1988
 201       1.920e+00      -1.568e+00       2.778e-02           0.011           0.008           1.000       7.720e-02          0.2127
 202       1.744e+00      -1.568e+00       2.901e-02          -0.006          -0.004           1.000       7.496e-02          0.2231
 203       1.576e+00      -1.568e+00       2.700e-02          -0.033          -0.024           0.999       6.841e-02          0.1867
 204       1.425e+00      -1.568e+00       2.127e-02          -0.057          -0.042           0.997       5.793e-02          0.1153
 205       1.300e+00      -1.568e+00       1.363e-02          -0.077          -0.056           0.995       4.405e-02          0.0101
 206       1.209e+00      -1.568e+00       6.383e-03          -0.090          -0.066           0.994       2.755e-02         -0.1559
 207       1.156e+00      -1.568e+00       1.571e-03          -0.097          -0.071           0.993       9.373e-03         -0.5542
Strip 17
 208       2.285e+00      -1.128e+00       3.508e-04           0.065           0.048           0.997       9.533e-03          0.0561
 209       2.253e+00      -1.128e+00       2.388e-03           0.062           0.045           0.997       2.804e-02          0.0938
 210       2.181e+00      -1.128e+00       6.763e-03           0.056           0.041           0.998       4.489e-02          0.1303
 211       2.072e+00      -1.128e+00       1.261e-02           0.048           0.035           0.998       5.911e-02          0.1601
 212       1.933e+00      -1.128e+00       1.878e-02           0.037           0.027           0.999       6.987e-02          0.1829
 213       1.773e+00      -1.128e+00       2.415e-02           0.024           0.018           1.000       7.658e-02          0.1979
 214       1.599e+00      -1.128e+00       2.778e-02           0.011           0.008           1.000       7.884e-02          0.2111
 215       1.424e+00      -1.128e+00       2.901e-02          -0.006          -0.004           1.000       7.654e-02          0.2203
 216       1.255e+00      -1.128e+00       2.700e-02          -0.033          -0.024           0.999       6.986e-02          0.1824
 217       1.104e+00      -1.128e+00       2.127e-02          -0.057          -0.042           0.997       5.915e-02          0.1088
 218       9.798e-01      -1.128e+00       1.363e-02          -0.077          -0.056           0.995       4.498e-02          0.0003
 219       8.886e-01      -1.128e+00       6.383e-03          -0.090          -0.066           0.994       2.813e-02         -0.1726
 220       8.362e-01      -1.128e+00       1.571e-03          -0.097          -0.071           0.993       9.572e-03         -0.5948
Strip 18
 221       1.959e+00      -6.797e-01       3.508e-04           0.065           0.048           0.997       9.666e-03          0.0565
 222       1.927e+00      -6.797e-01       2.388e-03           0.062           0.045           0.997       2.843e-02          0.0945
 223       1.855e+00      -6.797e-01       6.763e-03           0.056           0.041           0.998       4.551e-02          0.1312
 224       1.746e+00      -6.797e-01       1.261e-02           0.048           0.035           0.998       5.993e-02          0.1610
 225       1.608e+00      -6.797e-01       1.878e-02           0.037           0.027           0.999       7.084e-02          0.1835
 226       1.447e+00      -6.797e-01       2.415e-02           0.024           0.018           1.000       7.764e-02          0.1976
 227       1.274e+00      -6.797e-01       2.778e-02           0.011           0.008           1.000       7.993e-02          0.2092
 228       1.098e+00      -6.797e-01       2.901e-02          -0.006          -0.004           1.000       7.761e-02          0.2160
 229       9.295e-01      -6.797e-01       2.700e-02          -0.033          -0.024           0.999       7.083e-02          0.1752
 230       7.787e-01      -6.797e-01       2.127e-02          -0.057          -0.042           0.997       5.998e-02          0.0979
 231       6.540e-01      -6.797e-01       1.363e-02          -0.077          -0.056           0.995       4.561e-02         -0.0159
 232       5.628e-01      -6.797e-01       6.383e-03          -0.090          -0.066           0.994       2.852e-02         -0.1997
 233       5.104e-01      -6.797e-01       1.571e-03          -0.097          -0.071           0.993       9.705e-03         -0.6599
Strip 19
 234       1.630e+00      -2.271e-01       3.508e-04           0.065           0.048           0.997       9.732e-03          0.0597
 235       1.598e+00      -2.271e-01       2.388e-03           0.062           0.045           0.997       2.862e-02          0.0997
 236       1.526e+00      -2.271e-01       6.763e-03           0.056           0.041           0.998       4.583e-02          0.1383
 237       1.417e+00      -2.271e-01       1.261e-02           0.048           0.035           0.998       6.034e-02          0.1685
 238       1.278e+00      -2.271e-01       1.878e-02           0.037           0.027           0.999       7.133e-02          0.1891
 239       1.118e+00      -2.271e-01       2.415e-02           0.024           0.018           1.000       7.817e-02          0.1992
 240       9.445e-01      -2.271e-01       2.778e-02           0.011           0.008           1.000       8.048e-02          0.2052
 241       7.686e-01      -2.271e-01       2.901e-02          -0.006          -0.004           1.000       7.814e-02          0.2058
 242       6.003e-01      -2.271e-01       2.700e-02          -0.033          -0.024           0.999       7.132e-02          0.1589
 243       4.495e-01      -2.271e-01       2.127e-02          -0.057          -0.042           0.997       6.039e-02          0.0762
 244       3.248e-01      -2.271e-01       1.363e-02          -0.077          -0.056           0.995       4.592e-02         -0.0436
 245       2.336e-01      -2.271e-01       6.383e-03          -0.090          -0.066           0.994       2.872e-02         -0.2399
 246       1.812e-01      -2.271e-01       1.571e-03          -0.097          -0.071           0.993       9.772e-03         -0.7496
Strip 20
 247       1.630e+00       2.271e-01       3.508e-04           0.065          -0.048           0.997       9.732e-03          0.0597
 248       1.598e+00       2.271e-01       2.388e-03           0.062          -0.045           0.997       2.862e-02          0.0997
 249       1.526e+00       2.271e-01       6.763e-03           0.056          -0.041           0.998       4.583e-02          0.1383
 250       1.417e+00       2.271e-01       1.261e-02           0.048          -0.035           0.998       6.034e-02          0.1685
 251       1.278e+00       2.271e-01       1.878e-02           0.037          -0.027           0.999       7.133e-02          0.1891
 252       1.118e+00       2.271e-01       2.415e-02           0.024          -0.018           1.000       7.817e-02          0.1992
 253       9.445e-01       2.271e-01       2.778e-02           0.011          -0.008           1.000       8.048e-02          0.2052
 254       7.686e-01       2.271e-01       2.901e-02          -0.006           0.004           1.000       7.814e-02          0.2058
 255       6.003e-01       2.271e-01       2.700e-02          -0.033           0.024           0.999       7.132e-02          0.1589
 256       4.495e-01       2.271e-01       2.127e-02          -0.057           0.042           0.997       6.039e-02          0.0762
 257       3.248e-01       2.271e-01       1.363e-02          -0.077           0.056           0.995       4.592e-02         -0.0436
 258       2.336e-01       2.271e-01       6.383e-03          -0.090           0.066           0.994       2.872e-02         -0.2399
 259       1.812e-01       2.271e-01       1.571e-03          -0.097           0.071           0.993       9.772e-03         -0.7496
Strip 21
 260       1.959e+00       6.797e-01       3.508e-04           0.065          -0.048           0.997       9.666e-03          0.0565
 261       1.927e+00       6.797e-01       2.388e-03           0.062          -0.045           0.997       2.843e-02          0.0945
 262       1.855e+00       6.797e-01       6.763e-03           0.056          -0.041           0.998       4.551e-02          0.1312
 263       1.746e+00       6.797e-01       1.261e-02           0.048          -0.035           0.998       5.993e-02          0.1610
 264       1.608e+00       6.797e-01       1.878e-02           0.037          -0.027           0.999       7.084e-02          0.1835
 265       1.447e+00       6.797e-01       2.415e-02           0.024          -0.018           1.000       7.764e-02          0.1976
 266       1.274e+00       6.797e-01       2.778e-02           0.011          -0.008           1.000       7.993e-02          0.2092
 267       1.098e+00       6.797e-01       2.901e-02          -0.006           0.004           1.000       7.761e-02          0.2160
 268       9.295e-01       6.797e-01       2.700e-02          -0.033           0.024           0.999       7.083e-02          0.1752
 269       7.787e-01       6.797e-01       2.127e-02          -0.057           0.042           0.997       5.998e-02          0.0979
 270       6.540e-01       6.797e-01       1.363e-02          -0.077           0.056           0.995       4.561e-02         -0.0159
 271       5.628e-01       6.797e-01       6.383e-03          -0.090           0.066           0.994       2.852e-02         -0.1997
 272       5.104e-01       6.797e-01       1.571e-03          -0.097           0.071           0.993       9.705e-03         -0.6599
Strip 22
 273       2.285e+00       1.128e+00       3.508e-04           0.065          -0.048           0.997       9.533e-03          0.0561
 274       2.253e+00       1.128e+00       2.388e-03           0.062          -0.045           0.997       2.804e-02          0.0938
 275       2.181e+00       1.128e+00       6.763e-03           0.056          -0.041           0.998       4.489e-02          0.1303
 276       2.072e+00       1.128e+00       1.261e-02           0.048          -0.035           0.998       5.911e-02          0.1601
 277       1.933e+00       1.128e+00       1.878e-02           0.037          -0.027           0.999       6.987e-02          0.1829
 278       1.773e+00       1.128e+00       2.415e-02           0.024          -0.018           1.000       7.658e-02          0.1979
 279       1.599e+00       1.128e+00       2.778e-02           0.011          -0.008           1.000       7.884e-02          0.2111
 280       1.424e+00       1.128e+00       2.901e-02          -0.006           0.004           1.000       7.654e-02          0.2203
 281       1.255e+00       1.128e+00       2.700e-02          -0.033           0.024           0.999       6.986e-02          0.1824
 282       1.104e+00       1.128e+00       2.127e-02          -0.057           0.042           0.997       5.915e-02          0.1088
 283       9.798e-01       1.128e+00       1.363e-02          -0.077           0.056           0.995       4.498e-02          0.0003
 284       8.886e-01       1.128e+00       6.383e-03          -0.090           0.066           0.994       2.813e-02         -0.1726
 285       8.362e-01       1.128e+00       1.571e-03          -0.097           0.071           0.993       9.572e-03         -0.5948
Strip 23
 286       2.605e+00       1.568e+00       3.508e-04           0.065          -0.048           0.997       9.336e-03          0.0561
 287       2.573e+00       1.568e+00       2.388e-03           0.062          -0.045           0.997       2.746e-02          0.0938
 288       2.501e+00       1.568e+00       6.763e-03           0.056          -0.041           0.998       4.396e-02          0.1303
 289       2.392e+00       1.568e+00       1.261e-02           0.048          -0.035           0.998       5.788e-02          0.1603
 290       2.254e+00       1.568e+00       1.878e-02           0.037          -0.027           0.999       6.843e-02          0.1833
 291       2.093e+00       1.568e+00       2.415e-02           0.024          -0.018           1.000       7.499e-02          0.1988
 292       1.920e+00       1.568e+00       2.778e-02           0.011          -0.008           1.000       7.720e-02          0.2127
 293       1.744e+00       1.568e+00       2.901e-02          -0.006           0.004           1.000       7.496e-02          0.2231
 294       1.576e+00       1.568e+00       2.700e-02          -0.033           0.024           0.999       6.841e-02          0.1867
 295       1.425e+00       1.568e+00       2.127e-02          -0.057           0.042           0.997       5.793e-02          0.1153
 296       1.300e+00       1.568e+00       1.363e-02          -0.077           0.056           0.995       4.405e-02          0.0101
 297       1.209e+00       1.568e+00       6.383e-03          -0.090           0.066           0.994       2.755e-02         -0.1559
 298       1.156e+00       1.568e+00       1.571e-03          -0.097           0.071           0.993       9.373e-03         -0.5542
Strip 24
 299       2.917e+00       1.998e+00       3.508e-04           0.065          -0.048           0.997       9.074e-03          0.0561
 300       2.886e+00       1.998e+00       2.388e-03           0.062          -0.045           0.997       2.669e-02          0.0938
 301       2.813e+00       1.998e+00       6.763e-03           0.056          -0.041           0.998       4.273e-02          0.1304
 302       2.705e+00       1.998e+00       1.261e-02           0.048          -0.035           0.998       5.626e-02          0.1605
 303       2.566e+00       1.998e+00       1.878e-02           0.037          -0.027           0.999       6.651e-02          0.1837
 304       2.405e+00       1.998e+00       2.415e-02           0.024          -0.018           1.000       7.289e-02          0.1995
 305       2.232e+00       1.998e+00       2.778e-02           0.011          -0.008           1.000       7.504e-02          0.2140
 306       2.056e+00       1.998e+00       2.901e-02          -0.006           0.004           1.000       7.286e-02          0.2249
 307       1.888e+00       1.998e+00       2.700e-02          -0.033           0.024           0.999       6.649e-02          0.1895
 308       1.737e+00       1.998e+00       2.127e-02          -0.057           0.042           0.997       5.631e-02          0.1195
 309       1.612e+00       1.998e+00       1.363e-02          -0.077           0.056           0.995       4.282e-02          0.0164
 310       1.521e+00       1.998e+00       6.383e-03          -0.090           0.066           0.994       2.678e-02         -0.1451
 311       1.469e+00       1.998e+00       1.571e-03          -0.097           0.071           0.993       9.111e-03         -0.5281
Strip 25
 312       3.220e+00       2.414e+00       3.508e-04           0.065          -0.048           0.997       8.751e-03          0.0561
 313       3.188e+00       2.414e+00       2.388e-03           0.062          -0.045           0.997       2.574e-02          0.0938
 314       3.116e+00       2.414e+00       6.763e-03           0.056          -0.041           0.998       4.121e-02          0.1304
 315       3.007e+00       2.414e+00       1.261e-02           0.048          -0.035           0.998       5.426e-02          0.1606
 316       2.869e+00       2.414e+00       1.878e-02           0.037          -0.027           0.999       6.414e-02          0.1839
 317       2.708e+00       2.414e+00       2.415e-02           0.024          -0.018           1.000       7.029e-02          0.2000
 318       2.535e+00       2.414e+00       2.778e-02           0.011          -0.008           1.000       7.237e-02          0.2147
 319       2.359e+00       2.414e+00       2.901e-02          -0.006           0.004           1.000       7.026e-02          0.2261
 320       2.190e+00       2.414e+00       2.700e-02          -0.033           0.024           0.999       6.412e-02          0.1913
 321       2.040e+00       2.414e+00       2.127e-02          -0.057           0.042           0.997       5.430e-02          0.1221
 322       1.915e+00       2.414e+00       1.363e-02          -0.077           0.056           0.995       4.129e-02          0.0205
 323       1.824e+00       2.414e+00       6.383e-03          -0.090           0.066           0.994       2.582e-02         -0.1381
 324       1.771e+00       2.414e+00       1.571e-03          -0.097           0.071           0.993       8.786e-03         -0.5111
Strip 26
 325       3.510e+00       2.813e+00       3.508e-04           0.065          -0.048           0.997       8.368e-03          0.0560
 326       3.479e+00       2.813e+00       2.388e-03           0.062          -0.045           0.997       2.461e-02          0.0937
 327       3.406e+00       2.813e+00       6.763e-03           0.056          -0.041           0.998       3.940e-02          0.1302
 328       3.298e+00       2.813e+00       1.261e-02           0.048          -0.035           0.998       5.188e-02          0.1604
 329       3.159e+00       2.813e+00       1.878e-02           0.037          -0.027           0.999       6.133e-02          0.1838
 330       2.998e+00       2.813e+00       2.415e-02           0.024          -0.018           1.000       6.721e-02          0.2000
 331       2.825e+00       2.813e+00       2.778e-02           0.011          -0.008           1.000       6.920e-02          0.2150
 332       2.649e+00       2.813e+00       2.901e-02          -0.006           0.004           1.000       6.718e-02          0.2267
 333       2.481e+00       2.813e+00       2.700e-02          -0.033           0.024           0.999       6.132e-02          0.1923
 334       2.330e+00       2.813e+00       2.127e-02          -0.057           0.042           0.997       5.192e-02          0.1237
 335       2.205e+00       2.813e+00       1.363e-02          -0.077           0.056           0.995       3.948e-02          0.0230
 336       2.114e+00       2.813e+00       6.383e-03          -0.090           0.066           0.994       2.469e-02         -0.1338
 337       2.062e+00       2.813e+00       1.571e-03          -0.097           0.071           0.993       8.401e-03         -0.5005
Strip 27
 338       3.787e+00       3.193e+00       3.508e-04           0.065          -0.048           0.997       7.927e-03          0.0558
 339       3.755e+00       3.193e+00       2.388e-03           0.062          -0.045           0.997       2.331e-02          0.0933
 340       3.683e+00       3.193e+00       6.763e-03           0.056          -0.041           0.998       3.733e-02          0.1298
 341       3.574e+00       3.193e+00       1.261e-02           0.048          -0.035           0.998       4.915e-02          0.1599
 342       3.436e+00       3.193e+00       1.878e-02           0.037          -0.027           0.999       5.810e-02          0.1834
 343       3.275e+00       3.193e+00       2.415e-02           0.024          -0.018           1.000       6.368e-02          0.1996
 344       3.102e+00       3.193e+00       2.778e-02           0.011          -0.008           1.000       6.556e-02          0.2147
 345       2.926e+00       3.193e+00       2.901e-02          -0.006           0.004           1.000       6.365e-02          0.2267
 346       2.757e+00       3.193e+00       2.700e-02          -0.033           0.024           0.999       5.809e-02          0.1926
 347       2.607e+00       3.193e+00       2.127e-02          -0.057           0.042           0.997       4.919e-02          0.1243
 348       2.482e+00       3.193e+00       1.363e-02          -0.077           0.056           0.995       3.741e-02          0.0241
 349       2.391e+00       3.193e+00       6.383e-03          -0.090           0.066           0.994       2.339e-02         -0.1316
 350       2.338e+00       3.193e+00       1.571e-03          -0.097           0.071           0.993       7.959e-03         -0.4949
Strip 28
 351       4.048e+00       3.552e+00       3.508e-04           0.065          -0.048           0.997       7.433e-03          0.0555
 352       4.016e+00       3.552e+00       2.388e-03           0.062          -0.045           0.997       2.186e-02          0.0928
 353       3.944e+00       3.552e+00       6.763e-03           0.056          -0.041           0.998       3.500e-02          0.1291
 354       3.835e+00       3.552e+00       1.261e-02           0.048          -0.035           0.998       4.609e-02          0.1590
 355       3.696e+00       3.552e+00       1.878e-02           0.037          -0.027           0.999       5.448e-02          0.1824
 356       3.536e+00       3.552e+00       2.415e-02           0.024          -0.018           1.000       5.970e-02          0.1987
 357       3.362e+00       3.552e+00       2.778e-02           0.011          -0.008           1.000       6.147e-02          0.2139
 358       3.186e+00       3.552e+00       2.901e-02          -0.006           0.004           1.000       5.968e-02          0.2260
 359       3.018e+00       3.552e+00       2.700e-02          -0.033           0.024           0.999       5.447e-02          0.1921
 360       2.867e+00       3.552e+00       2.127e-02          -0.057           0.042           0.997       4.612e-02          0.1241
 361       2.743e+00       3.552e+00       1.363e-02          -0.077           0.056           0.995       3.507e-02          0.0242
 362       2.651e+00       3.552e+00       6.383e-03          -0.090           0.066           0.994       2.193e-02         -0.1312
 363       2.599e+00       3.552e+00       1.571e-03          -0.097           0.071           0.993       7.463e-03         -0.4937
Strip 29
 364       4.291e+00       3.886e+00       3.508e-04           0.065          -0.048           0.997       6.888e-03          0.0549
 365       4.259e+00       3.886e+00       2.388e-03           0.062          -0.045           0.997       2.026e-02          0.0918
 366       4.187e+00       3.886e+00       6.763e-03           0.056          -0.041           0.998       3.243e-02          0.1278
 367       4.078e+00       3.886e+00       1.261e-02           0.048          -0.035           0.998       4.270e-02          0.1575
 368       3.939e+00       3.886e+00       1.878e-02           0.037          -0.027           0.999       5.048e-02          0.1808
 369       3.779e+00       3.886e+00       2.415e-02           0.024          -0.018           1.000       5.532e-02          0.1970
 370       3.605e+00       3.886e+00       2.778e-02           0.011          -0.008           1.000       5.696e-02          0.2123
 371       3.429e+00       3.886e+00       2.901e-02          -0.006           0.004           1.000       5.530e-02          0.2246
 372       3.261e+00       3.886e+00       2.700e-02          -0.033           0.024           0.999       5.047e-02          0.1908
 373       3.110e+00       3.886e+00       2.127e-02          -0.057           0.042           0.997       4.274e-02          0.1230
 374       2.986e+00       3.886e+00       1.363e-02          -0.077           0.056           0.995       3.250e-02          0.0231
 375       2.894e+00       3.886e+00       6.383e-03          -0.090           0.066           0.994       2.032e-02         -0.1326
 376       2.842e+00       3.886e+00       1.571e-03          -0.097           0.071           0.993       6.915e-03         -0.4966
Strip 30
 377       4.514e+00       4.193e+00       3.508e-04           0.065          -0.048           0.997       6.295e-03          0.0540
 378       4.483e+00       4.193e+00       2.388e-03           0.062          -0.045           0.997       1.851e-02          0.0903
 379       4.410e+00       4.193e+00       6.763e-03           0.056          -0.041           0.998       2.964e-02          0.1256
 380       4.302e+00       4.193e+00       1.261e-02           0.048          -0.035           0.998       3.903e-02          0.1550
 381       4.163e+00       4.193e+00       1.878e-02           0.037          -0.027           0.999       4.614e-02          0.1781
 382       4.002e+00       4.193e+00       2.415e-02           0.024          -0.018           1.000       5.057e-02          0.1944
 383       3.829e+00       4.193e+00       2.778e-02           0.011          -0.008           1.000       5.206e-02          0.2098
 384       3.653e+00       4.193e+00       2.901e-02          -0.006           0.004           1.000       5.055e-02          0.2223
 385       3.485e+00       4.193e+00       2.700e-02          -0.033           0.024           0.999       4.613e-02          0.1887
 386       3.334e+00       4.193e+00       2.127e-02          -0.057           0.042           0.997       3.906e-02          0.1210
 387       3.209e+00       4.193e+00       1.363e-02          -0.077           0.056           0.995       2.971e-02          0.0209
 388       3.118e+00       4.193e+00       6.383e-03          -0.090           0.066           0.994       1.858e-02         -0.1356
 389       3.066e+00       4.193e+00       1.571e-03          -0.097           0.071           0.993       6.321e-03         -0.5033
Strip 31
 390       4.717e+00       4.472e+00       3.508e-04           0.065          -0.048           0.997       5.660e-03          0.0525
 391       4.686e+00       4.472e+00       2.388e-03           0.062          -0.045           0.997       1.665e-02          0.0877
 392       4.613e+00       4.472e+00       6.763e-03           0.056          -0.041           0.998       2.665e-02          0.1222
 393       4.505e+00       4.472e+00       1.261e-02           0.048          -0.035           0.998       3.509e-02          0.1509
 394       4.366e+00       4.472e+00       1.878e-02           0.037          -0.027           0.999       4.148e-02          0.1738
 395       4.205e+00       4.472e+00       2.415e-02           0.024          -0.018           1.000       4.546e-02          0.1903
 396       4.032e+00       4.472e+00       2.778e-02           0.011          -0.008           1.000       4.681e-02          0.2061
 397       3.856e+00       4.472e+00       2.901e-02          -0.006           0.004           1.000       4.544e-02          0.2189
 398       3.688e+00       4.472e+00       2.700e-02          -0.033           0.024           0.999       4.148e-02          0.1856
 399       3.537e+00       4.472e+00       2.127e-02          -0.057           0.042           0.997       3.512e-02          0.1179
 400       3.412e+00       4.472e+00       1.363e-02          -0.077           0.056           0.995       2.671e-02          0.0176
 401       3.321e+00       4.472e+00       6.383e-03          -0.090           0.066           0.994       1.670e-02         -0.1402
 402       3.269e+00       4.472e+00       1.571e-03          -0.097           0.071           0.993       5.683e-03         -0.5138
Strip 32
 403       4.898e+00       4.721e+00       3.508e-04           0.065          -0.048           0.997       4.986e-03          0.0501
 404       4.866e+00       4.721e+00       2.388e-03           0.062          -0.045           0.997       1.466e-02          0.0836
 405       4.794e+00       4.721e+00       6.763e-03           0.056          -0.041           0.998       2.348e-02          0.1165
 406       4.685e+00       4.721e+00       1.261e-02           0.048          -0.035           0.998       3.091e-02          0.1442
 407       4.547e+00       4.721e+00       1.878e-02           0.037          -0.027           0.999       3.655e-02          0.1668
 408       4.386e+00       4.721e+00       2.415e-02           0.024          -0.018           1.000       4.005e-02          0.1837
 409       4.213e+00       4.721e+00       2.778e-02           0.011          -0.008           1.000       4.123e-02          0.2003
 410       4.037e+00       4.721e+00       2.901e-02          -0.006           0.004           1.000       4.003e-02          0.2140
 411       3.868e+00       4.721e+00       2.700e-02          -0.033           0.024           0.999       3.654e-02          0.1814
 412       3.718e+00       4.721e+00       2.127e-02          -0.057           0.042           0.997       3.094e-02          0.1139
 413       3.593e+00       4.721e+00       1.363e-02          -0.077           0.056           0.995       2.353e-02          0.0132
 414       3.502e+00       4.721e+00       6.383e-03          -0.090           0.066           0.994       1.471e-02         -0.1464
 415       3.449e+00       4.721e+00       1.571e-03          -0.097           0.071           0.993       5.006e-03         -0.5276
Strip 33
 416       5.055e+00       4.937e+00       3.508e-04           0.065          -0.048           0.997       4.278e-03          0.0464
 417       5.023e+00       4.937e+00       2.388e-03           0.062          -0.045           0.997       1.258e-02          0.0774
 418       4.951e+00       4.937e+00       6.763e-03           0.056          -0.041           0.998       2.014e-02          0.1078
 419       4.842e+00       4.937e+00       1.261e-02           0.048          -0.035           0.998       2.652e-02          0.1337
 420       4.704e+00       4.937e+00       1.878e-02           0.037          -0.027           0.999       3.136e-02          0.1556
 421       4.543e+00       4.937e+00       2.415e-02           0.024          -0.018           1.000       3.436e-02          0.1730
 422       4.370e+00       4.937e+00       2.778e-02           0.011          -0.008           1.000       3.538e-02          0.1913
 423       4.194e+00       4.937e+00       2.901e-02          -0.006           0.004           1.000       3.435e-02          0.2071
 424       4.026e+00       4.937e+00       2.700e-02          -0.033           0.024           0.999       3.135e-02          0.1759
 425       3.875e+00       4.937e+00       2.127e-02          -0.057           0.042           0.997       2.655e-02          0.1091
 426       3.750e+00       4.937e+00       1.363e-02          -0.077           0.056           0.995       2.019e-02          0.0081
 427       3.659e+00       4.937e+00       6.383e-03          -0.090           0.066           0.994       1.262e-02         -0.1535
 428       3.607e+00       4.937e+00       1.571e-03          -0.097           0.071           0.993       4.295e-03         -0.5436
Strip 34
 429       5.188e+00       5.119e+00       3.508e-04           0.065          -0.048           0.997       3.541e-03          0.0416
 430       5.156e+00       5.119e+00       2.388e-03           0.062          -0.045           0.997       1.041e-02          0.0691
 431       5.084e+00       5.119e+00       6.763e-03           0.056          -0.041           0.998       1.667e-02          0.0960
 432       4.975e+00       5.119e+00       1.261e-02           0.048          -0.035           0.998       2.195e-02          0.1190
 433       4.836e+00       5.119e+00       1.878e-02           0.037          -0.027           0.999       2.595e-02          0.1390
 434       4.676e+00       5.119e+00       2.415e-02           0.024          -0.018           1.000       2.844e-02          0.1562
 435       4.502e+00       5.119e+00       2.778e-02           0.011          -0.008           1.000       2.928e-02          0.1766
 436       4.327e+00       5.119e+00       2.901e-02          -0.006           0.004           1.000       2.843e-02          0.1963
 437       4.158e+00       5.119e+00       2.700e-02          -0.033           0.024           0.999       2.595e-02          0.1691
 438       4.007e+00       5.119e+00       2.127e-02          -0.057           0.042           0.997       2.197e-02          0.1042
 439       3.883e+00       5.119e+00       1.363e-02          -0.077           0.056           0.995       1.671e-02          0.0032
 440       3.792e+00       5.119e+00       6.383e-03          -0.090           0.066           0.994       1.045e-02         -0.1604
 441       3.739e+00       5.119e+00       1.571e-03          -0.097           0.071           0.993       3.555e-03         -0.5592
Strip 35
 442       5.295e+00       5.267e+00       3.508e-04           0.065          -0.048           0.997       2.779e-03          0.0358
 443       5.263e+00       5.267e+00       2.388e-03           0.062          -0.045           0.997       8.174e-03          0.0590
 444       5.191e+00       5.267e+00       6.763e-03           0.056          -0.041           0.998       1.309e-02          0.0815
 445       5.082e+00       5.267e+00       1.261e-02           0.048          -0.035           0.998       1.723e-02          0.1007
 446       4.944e+00       5.267e+00       1.878e-02           0.037          -0.027           0.999       2.037e-02          0.1175
 447       4.783e+00       5.267e+00       2.415e-02           0.024          -0.018           1.000       2.232e-02          0.1326
 448       4.610e+00       5.267e+00       2.778e-02           0.011          -0.008           1.000       2.298e-02          0.1534
 449       4.434e+00       5.267e+00       2.901e-02          -0.006           0.004           1.000       2.232e-02          0.1779
 450       4.266e+00       5.267e+00       2.700e-02          -0.033           0.024           0.999       2.037e-02          0.1588
 451       4.115e+00       5.267e+00       2.127e-02          -0.057           0.042           0.997       1.725e-02          0.1004
 452       3.990e+00       5.267e+00       1.363e-02          -0.077           0.056           0.995       1.311e-02          0.0009
 453       3.899e+00       5.267e+00       6.383e-03          -0.090           0.066           0.994       8.201e-03         -0.1644
 454       3.846e+00       5.267e+00       1.571e-03          -0.097           0.071           0.993       2.791e-03         -0.5694
Strip 36
 455       5.376e+00       5.378e+00       3.508e-04           0.065          -0.048           0.997       1.999e-03          0.0291
 456       5.344e+00       5.378e+00       2.388e-03           0.062          -0.045           0.997       5.879e-03          0.0474
 457       5.272e+00       5.378e+00       6.763e-03           0.056          -0.041           0.998       9.413e-03          0.0650
 458       5.164e+00       5.378e+00       1.261e-02           0.048          -0.035           0.998       1.239e-02          0.0796
 459       5.025e+00       5.378e+00       1.878e-02           0.037          -0.027           0.999       1.465e-02          0.0924
 460       4.864e+00       5.378e+00       2.415e-02           0.024          -0.018           1.000       1.606e-02          0.1038
 461       4.691e+00       5.378e+00       2.778e-02           0.011          -0.008           1.000       1.653e-02          0.1218
 462       4.515e+00       5.378e+00       2.901e-02          -0.006           0.004           1.000       1.605e-02          0.1479
 463       4.347e+00       5.378e+00       2.700e-02          -0.033           0.024           0.999       1.465e-02          0.1388
 464       4.196e+00       5.378e+00       2.127e-02          -0.057           0.042           0.997       1.240e-02          0.0964
 465       4.071e+00       5.378e+00       1.363e-02          -0.077           0.056           0.995       9.432e-03          0.0064
 466       3.980e+00       5.378e+00       6.383e-03          -0.090           0.066           0.994       5.898e-03         -0.1598
 467       3.928e+00       5.378e+00       1.571e-03          -0.097           0.071           0.993       2.007e-03         -0.5648
Strip 37
 468       5.431e+00       5.453e+00       3.508e-04           0.065          -0.048           0.997       1.205e-03          0.0214
 469       5.399e+00       5.453e+00       2.388e-03           0.062          -0.045           0.997       3.543e-03          0.0346
 470       5.327e+00       5.453e+00       6.763e-03           0.056          -0.041           0.998       5.673e-03          0.0469
 471       5.218e+00       5.453e+00       1.261e-02           0.048          -0.035           0.998       7.470e-03          0.0567
 472       5.079e+00       5.453e+00       1.878e-02           0.037          -0.027           0.999       8.831e-03          0.0653
 473       4.919e+00       5.453e+00       2.415e-02           0.024          -0.018           1.000       9.678e-03          0.0726
 474       4.745e+00       5.453e+00       2.778e-02           0.011          -0.008           1.000       9.964e-03          0.0855
 475       4.569e+00       5.453e+00       2.901e-02          -0.006           0.004           1.000       9.674e-03          0.1074
 476       4.401e+00       5.453e+00       2.700e-02          -0.033           0.024           0.999       8.829e-03          0.1041
 477       4.250e+00       5.453e+00       2.127e-02          -0.057           0.042           0.997       7.476e-03          0.0801
 478       4.126e+00       5.453e+00       1.363e-02          -0.077           0.056           0.995       5.685e-03          0.0223
 479       4.034e+00       5.453e+00       6.383e-03          -0.090           0.066           0.994       3.555e-03         -0.1308
 480       3.982e+00       5.453e+00       1.571e-03          -0.097           0.071           0.993       1.210e-03         -0.5290
Strip 38
 481       5.458e+00       5.491e+00       3.508e-04           0.065          -0.048           0.997       4.025e-04          0.0149
 482       5.426e+00       5.491e+00       2.388e-03           0.062          -0.045           0.997       1.184e-03          0.0214
 483       5.354e+00       5.491e+00       6.763e-03           0.056          -0.041           0.998       1.895e-03          0.0280
 484       5.245e+00       5.491e+00       1.261e-02           0.048          -0.035           0.998       2.496e-03          0.0334
 485       5.106e+00       5.491e+00       1.878e-02           0.037          -0.027           0.999       2.950e-03          0.0382
 486       4.946e+00       5.491e+00       2.415e-02           0.024          -0.018           1.000       3.233e-03          0.0423
 487       4.772e+00       5.491e+00       2.778e-02           0.011          -0.008           1.000       3.329e-03          0.0498
 488       4.597e+00       5.491e+00       2.901e-02          -0.006           0.004           1.000       3.232e-03          0.0634
 489       4.428e+00       5.491e+00       2.700e-02          -0.033           0.024           0.999       2.950e-03          0.0621
 490       4.277e+00       5.491e+00       2.127e-02          -0.057           0.042           0.997       2.498e-03          0.0494
 491       4.153e+00       5.491e+00       1.363e-02          -0.077           0.056           0.995       1.899e-03          0.0205
 492       4.062e+00       5.491e+00       6.383e-03          -0.090           0.066           0.994       1.188e-03         -0.0571
 493       4.009e+00       5.491e+00       1.571e-03          -0.097           0.071           0.993       4.042e-04         -0.4255










